/*---------------------------------------------------------------------------*\
| =========                 |                                                 |
| \\      /  F ield         | OpenFOAM: The Open Source CFD Toolbox           |
|  \\    /   O peration     | Version:  5.x                                   |
|   \\  /    A nd           | Web:      www.OpenFOAM.org                      |
|    \\/     M anipulation  |                                                 |
\*---------------------------------------------------------------------------*/
Build  : 5.x-538044ac05c4
Exec   : interFoam
Date   : Jan 10 2019
Time   : 02:26:40
Host   : "tsimur"
PID    : 668
I/O    : uncollated
Case   : /home/tsimur/OpenFOAM/OpenFOAM-5.x/tutorials/multiphase/interFoam/laminar/damBreak/damBreak_1
nProcs : 1
sigFpe : Enabling floating point exception trapping (FOAM_SIGFPE).
fileModificationChecking : Monitoring run-time modified files using timeStampMaster (fileModificationSkew 10)
allowSystemOperations : Allowing user-supplied system call operations

// * * * * * * * * * * * * * * * * * * * * * * * * * * * * * * * * * * * * * //
Create time

Create mesh for time = 0


PIMPLE: Operating solver in PISO mode

Reading field p_rgh

Reading field U

Reading/calculating face flux field phi

Reading transportProperties

Selecting incompressible transport model Newtonian
Selecting incompressible transport model Newtonian
Selecting turbulence model type laminar
Selecting laminar stress model Stokes

Reading g

Reading hRef
Calculating field g.h

No MRF models present

No finite volume options present

DICPCG:  Solving for pcorr, Initial residual = 0, Final residual = 0, No Iterations 0
time step continuity errors : sum local = 0, global = 0, cumulative = 0
Courant Number mean: 0 max: 0

Starting time loop

Courant Number mean: 0 max: 0
Interface Courant Number mean: 0 max: 0
deltaT = 0.00119048
Time = 0.00119048

PIMPLE: iteration 1
smoothSolver:  Solving for alpha.water, Initial residual = 0, Final residual = 0, No Iterations 0
Phase-1 volume fraction = 0.130194  Min(alpha.water) = 0  Max(alpha.water) = 1
MULES: Correcting alpha.water
MULES: Correcting alpha.water
Phase-1 volume fraction = 0.130194  Min(alpha.water) = 0  Max(alpha.water) = 1
DICPCG:  Solving for p_rgh, Initial residual = 1, Final residual = 0.00312151, No Iterations 1
time step continuity errors : sum local = 0.000863716, global = -1.26737e-12, cumulative = -1.26737e-12
DICPCG:  Solving for p_rgh, Initial residual = 0.00146334, Final residual = 6.18258e-05, No Iterations 13
time step continuity errors : sum local = 3.64964e-05, global = -1.00164e-05, cumulative = -1.00164e-05
DICPCG:  Solving for p_rgh, Initial residual = 5.08526e-05, Final residual = 8.19098e-08, No Iterations 48
time step continuity errors : sum local = 5.88522e-08, global = 1.01688e-08, cumulative = -1.00063e-05
ExecutionTime = 0.05 s  ClockTime = 0 s

Courant Number mean: 0.00124887 max: 0.107255
Interface Courant Number mean: 0 max: 0
deltaT = 0.00139456
Time = 0.00258503

PIMPLE: iteration 1
smoothSolver:  Solving for alpha.water, Initial residual = 0.000282103, Final residual = 1.76316e-12, No Iterations 2
Phase-1 volume fraction = 0.130194  Min(alpha.water) = 0  Max(alpha.water) = 1
MULES: Correcting alpha.water
MULES: Correcting alpha.water
Phase-1 volume fraction = 0.130194  Min(alpha.water) = -3.70065e-13  Max(alpha.water) = 1
DICPCG:  Solving for p_rgh, Initial residual = 0.003099, Final residual = 0.000102349, No Iterations 2
time step continuity errors : sum local = 8.65421e-05, global = 2.84037e-08, cumulative = -9.97788e-06
DICPCG:  Solving for p_rgh, Initial residual = 0.000212218, Final residual = 9.20751e-06, No Iterations 35
time step continuity errors : sum local = 7.78924e-06, global = -8.5511e-08, cumulative = -1.00634e-05
DICPCG:  Solving for p_rgh, Initial residual = 2.94172e-05, Final residual = 9.61068e-08, No Iterations 43
time step continuity errors : sum local = 8.12748e-08, global = 5.64079e-09, cumulative = -1.00577e-05
ExecutionTime = 0.06 s  ClockTime = 0 s

Courant Number mean: 0.00181615 max: 0.055014
Interface Courant Number mean: 4.99718e-05 max: 0.055014
deltaT = 0.001635
Time = 0.00422003

PIMPLE: iteration 1
smoothSolver:  Solving for alpha.water, Initial residual = 0.000190554, Final residual = 8.87589e-09, No Iterations 1
Phase-1 volume fraction = 0.130194  Min(alpha.water) = 0  Max(alpha.water) = 1
MULES: Correcting alpha.water
MULES: Correcting alpha.water
Phase-1 volume fraction = 0.130194  Min(alpha.water) = -7.48206e-12  Max(alpha.water) = 1
DICPCG:  Solving for p_rgh, Initial residual = 0.00263577, Final residual = 6.09923e-05, No Iterations 2
time step continuity errors : sum local = 6.42838e-05, global = 1.04857e-10, cumulative = -1.00576e-05
DICPCG:  Solving for p_rgh, Initial residual = 6.1868e-05, Final residual = 2.43896e-06, No Iterations 36
time step continuity errors : sum local = 2.56891e-06, global = 3.22615e-09, cumulative = -1.00544e-05
DICPCG:  Solving for p_rgh, Initial residual = 2.8956e-06, Final residual = 7.07452e-08, No Iterations 19
time step continuity errors : sum local = 7.45624e-08, global = -5.56509e-09, cumulative = -1.006e-05
ExecutionTime = 0.07 s  ClockTime = 0 s

Courant Number mean: 0.00313946 max: 0.0515553
Interface Courant Number mean: 4.24533e-05 max: 0.0434846
deltaT = 0.0019075
Time = 0.00612753

PIMPLE: iteration 1
smoothSolver:  Solving for alpha.water, Initial residual = 0.000225848, Final residual = 7.13277e-14, No Iterations 2
Phase-1 volume fraction = 0.130194  Min(alpha.water) = 0  Max(alpha.water) = 1
MULES: Correcting alpha.water
MULES: Correcting alpha.water
Phase-1 volume fraction = 0.130194  Min(alpha.water) = -2.56953e-10  Max(alpha.water) = 1
DICPCG:  Solving for p_rgh, Initial residual = 0.00332234, Final residual = 0.000146031, No Iterations 1
time step continuity errors : sum local = 0.000192509, global = -1.6753e-08, cumulative = -1.00767e-05
DICPCG:  Solving for p_rgh, Initial residual = 0.000148915, Final residual = 6.71321e-06, No Iterations 10
time step continuity errors : sum local = 8.8348e-06, global = -3.64675e-07, cumulative = -1.04414e-05
DICPCG:  Solving for p_rgh, Initial residual = 7.12903e-06, Final residual = 8.8608e-08, No Iterations 37
time step continuity errors : sum local = 1.16643e-07, global = -1.06467e-08, cumulative = -1.04521e-05
ExecutionTime = 0.08 s  ClockTime = 0 s

Courant Number mean: 0.00514547 max: 0.0598834
Interface Courant Number mean: 0.000132424 max: 0.047612
deltaT = 0.00219362
Time = 0.00832115

PIMPLE: iteration 1
smoothSolver:  Solving for alpha.water, Initial residual = 0.000321743, Final residual = 4.30502e-13, No Iterations 2
Phase-1 volume fraction = 0.130194  Min(alpha.water) = 0  Max(alpha.water) = 1
MULES: Correcting alpha.water
MULES: Correcting alpha.water
Phase-1 volume fraction = 0.130194  Min(alpha.water) = -3.25352e-09  Max(alpha.water) = 1
DICPCG:  Solving for p_rgh, Initial residual = 0.00488526, Final residual = 0.000155701, No Iterations 1
time step continuity errors : sum local = 0.000255071, global = -7.46579e-09, cumulative = -1.04595e-05
DICPCG:  Solving for p_rgh, Initial residual = 0.00015838, Final residual = 7.40591e-06, No Iterations 9
time step continuity errors : sum local = 1.20953e-05, global = -5.35757e-08, cumulative = -1.05131e-05
DICPCG:  Solving for p_rgh, Initial residual = 8.06722e-06, Final residual = 8.98042e-08, No Iterations 37
time step continuity errors : sum local = 1.46717e-07, global = 1.41442e-09, cumulative = -1.05117e-05
ExecutionTime = 0.08 s  ClockTime = 0 s

Courant Number mean: 0.00793034 max: 0.0731938
Interface Courant Number mean: 0.000283874 max: 0.0656984
deltaT = 0.00260493
Time = 0.0109261

PIMPLE: iteration 1
smoothSolver:  Solving for alpha.water, Initial residual = 0.000479699, Final residual = 2.41143e-12, No Iterations 2
Phase-1 volume fraction = 0.130194  Min(alpha.water) = 0  Max(alpha.water) = 1
MULES: Correcting alpha.water
MULES: Correcting alpha.water
Phase-1 volume fraction = 0.130194  Min(alpha.water) = -2.49892e-08  Max(alpha.water) = 1
DICPCG:  Solving for p_rgh, Initial residual = 0.00741646, Final residual = 0.000177715, No Iterations 1
time step continuity errors : sum local = 0.000391064, global = 3.89611e-08, cumulative = -1.04727e-05
DICPCG:  Solving for p_rgh, Initial residual = 0.0001801, Final residual = 8.47432e-06, No Iterations 9
time step continuity errors : sum local = 1.85537e-05, global = 1.02516e-07, cumulative = -1.03702e-05
DICPCG:  Solving for p_rgh, Initial residual = 1.00809e-05, Final residual = 9.14643e-08, No Iterations 37
time step continuity errors : sum local = 2.00345e-07, global = 4.0371e-09, cumulative = -1.03662e-05
ExecutionTime = 0.09 s  ClockTime = 0 s

Courant Number mean: 0.0122603 max: 0.101724
Interface Courant Number mean: 0.000492067 max: 0.0991324
deltaT = 0.00300569
Time = 0.0139318

PIMPLE: iteration 1
smoothSolver:  Solving for alpha.water, Initial residual = 0.000691625, Final residual = 1.08908e-11, No Iterations 2
Phase-1 volume fraction = 0.130194  Min(alpha.water) = 0  Max(alpha.water) = 1
MULES: Correcting alpha.water
MULES: Correcting alpha.water
Phase-1 volume fraction = 0.130194  Min(alpha.water) = -1.29013e-07  Max(alpha.water) = 1
DICPCG:  Solving for p_rgh, Initial residual = 0.0108403, Final residual = 0.000200303, No Iterations 1
time step continuity errors : sum local = 0.000563337, global = 4.33773e-08, cumulative = -1.03228e-05
DICPCG:  Solving for p_rgh, Initial residual = 0.000203148, Final residual = 9.646e-06, No Iterations 10
time step continuity errors : sum local = 2.69364e-05, global = 2.96147e-07, cumulative = -1.00266e-05
DICPCG:  Solving for p_rgh, Initial residual = 1.28453e-05, Final residual = 9.31025e-08, No Iterations 36
time step continuity errors : sum local = 2.60208e-07, global = -3.21144e-09, cumulative = -1.00299e-05
ExecutionTime = 0.1 s  ClockTime = 0 s

Courant Number mean: 0.0179421 max: 0.148354
Interface Courant Number mean: 0.000790298 max: 0.143382
deltaT = 0.00360682
Time = 0.0175386

PIMPLE: iteration 1
smoothSolver:  Solving for alpha.water, Initial residual = 0.0010203, Final residual = 5.29596e-11, No Iterations 2
Phase-1 volume fraction = 0.130194  Min(alpha.water) = 0  Max(alpha.water) = 1
MULES: Correcting alpha.water
MULES: Correcting alpha.water
Phase-1 volume fraction = 0.130194  Min(alpha.water) = -7.33563e-07  Max(alpha.water) = 1
DICPCG:  Solving for p_rgh, Initial residual = 0.0161574, Final residual = 0.000239398, No Iterations 1
time step continuity errors : sum local = 0.0009289, global = 6.12288e-08, cumulative = -9.96863e-06
DICPCG:  Solving for p_rgh, Initial residual = 0.000244468, Final residual = 1.15376e-05, No Iterations 10
time step continuity errors : sum local = 4.42956e-05, global = 1.13854e-06, cumulative = -8.83008e-06
DICPCG:  Solving for p_rgh, Initial residual = 1.79686e-05, Final residual = 8.91342e-08, No Iterations 39
time step continuity errors : sum local = 3.42614e-07, global = -6.14823e-08, cumulative = -8.89157e-06
ExecutionTime = 0.11 s  ClockTime = 0 s

Courant Number mean: 0.02705 max: 0.215392
Interface Courant Number mean: 0.00133037 max: 0.208893
deltaT = 0.00405768
Time = 0.0215963

PIMPLE: iteration 1
smoothSolver:  Solving for alpha.water, Initial residual = 0.00140064, Final residual = 1.72972e-10, No Iterations 2
Phase-1 volume fraction = 0.130194  Min(alpha.water) = 0  Max(alpha.water) = 1
MULES: Correcting alpha.water
MULES: Correcting alpha.water
Phase-1 volume fraction = 0.130194  Min(alpha.water) = -2.86101e-07  Max(alpha.water) = 1
DICPCG:  Solving for p_rgh, Initial residual = 0.0223693, Final residual = 0.000261888, No Iterations 1
time step continuity errors : sum local = 0.00122897, global = 2.81367e-09, cumulative = -8.88875e-06
DICPCG:  Solving for p_rgh, Initial residual = 0.000269368, Final residual = 1.30618e-05, No Iterations 10
time step continuity errors : sum local = 6.03872e-05, global = 2.25648e-06, cumulative = -6.63228e-06
DICPCG:  Solving for p_rgh, Initial residual = 2.28059e-05, Final residual = 9.93615e-08, No Iterations 40
time step continuity errors : sum local = 4.60224e-07, global = -7.52533e-08, cumulative = -6.70753e-06
ExecutionTime = 0.11 s  ClockTime = 0 s

Courant Number mean: 0.0374641 max: 0.278182
Interface Courant Number mean: 0.00182993 max: 0.274315
deltaT = 0.00473396
Time = 0.0263302

PIMPLE: iteration 1
smoothSolver:  Solving for alpha.water, Initial residual = 0.00196973, Final residual = 5.59437e-10, No Iterations 2
Phase-1 volume fraction = 0.130194  Min(alpha.water) = 0  Max(alpha.water) = 1
MULES: Correcting alpha.water
MULES: Correcting alpha.water
Phase-1 volume fraction = 0.130194  Min(alpha.water) = -1.60236e-06  Max(alpha.water) = 1
DICPCG:  Solving for p_rgh, Initial residual = 0.0311126, Final residual = 0.000254049, No Iterations 1
time step continuity errors : sum local = 0.00153738, global = 1.70573e-07, cumulative = -6.53696e-06
DICPCG:  Solving for p_rgh, Initial residual = 0.000268782, Final residual = 1.28915e-05, No Iterations 11
time step continuity errors : sum local = 7.63231e-05, global = 1.42783e-06, cumulative = -5.10912e-06
DICPCG:  Solving for p_rgh, Initial residual = 3.02609e-05, Final residual = 8.93879e-08, No Iterations 43
time step continuity errors : sum local = 5.30841e-07, global = -3.30296e-08, cumulative = -5.14215e-06
ExecutionTime = 0.12 s  ClockTime = 0 s

Courant Number mean: 0.0534939 max: 0.411752
Interface Courant Number mean: 0.00271259 max: 0.37796
deltaT = 0.00473396
Time = 0.0310642

PIMPLE: iteration 1
smoothSolver:  Solving for alpha.water, Initial residual = 0.00237882, Final residual = 1.55167e-13, No Iterations 3
Phase-1 volume fraction = 0.130194  Min(alpha.water) = 0  Max(alpha.water) = 1
MULES: Correcting alpha.water
MULES: Correcting alpha.water
Phase-1 volume fraction = 0.130194  Min(alpha.water) = -2.1126e-06  Max(alpha.water) = 1
DICPCG:  Solving for p_rgh, Initial residual = 0.0381249, Final residual = 0.000262498, No Iterations 1
time step continuity errors : sum local = 0.00149575, global = 3.2087e-07, cumulative = -4.82128e-06
DICPCG:  Solving for p_rgh, Initial residual = 0.000281661, Final residual = 1.35541e-05, No Iterations 11
time step continuity errors : sum local = 7.5177e-05, global = 5.58233e-06, cumulative = 7.61053e-07
DICPCG:  Solving for p_rgh, Initial residual = 3.36102e-05, Final residual = 7.71464e-08, No Iterations 39
time step continuity errors : sum local = 4.29818e-07, global = -3.14887e-08, cumulative = 7.29564e-07
ExecutionTime = 0.13 s  ClockTime = 0 s

Courant Number mean: 0.0629394 max: 0.46894
Interface Courant Number mean: 0.00329352 max: 0.433585
deltaT = 0.00473396
Time = 0.0357981

PIMPLE: iteration 1
smoothSolver:  Solving for alpha.water, Initial residual = 0.0027555, Final residual = 3.30554e-13, No Iterations 3
Phase-1 volume fraction = 0.130194  Min(alpha.water) = 0  Max(alpha.water) = 1
MULES: Correcting alpha.water
MULES: Correcting alpha.water
Phase-1 volume fraction = 0.130194  Min(alpha.water) = -3.64736e-06  Max(alpha.water) = 1
DICPCG:  Solving for p_rgh, Initial residual = 0.0454085, Final residual = 0.000306431, No Iterations 1
time step continuity errors : sum local = 0.00162926, global = 2.26778e-07, cumulative = 9.56342e-07
DICPCG:  Solving for p_rgh, Initial residual = 0.000335299, Final residual = 1.64071e-05, No Iterations 10
time step continuity errors : sum local = 8.43415e-05, global = 6.58905e-06, cumulative = 7.54539e-06
DICPCG:  Solving for p_rgh, Initial residual = 4.1101e-05, Final residual = 9.97217e-08, No Iterations 39
time step continuity errors : sum local = 5.15379e-07, global = -4.45937e-08, cumulative = 7.5008e-06
ExecutionTime = 0.14 s  ClockTime = 0 s

Courant Number mean: 0.0719988 max: 0.534529
Interface Courant Number mean: 0.00389806 max: 0.511181
deltaT = 0.00473396
Time = 0.0405321

PIMPLE: iteration 1
smoothSolver:  Solving for alpha.water, Initial residual = 0.00310956, Final residual = 1.21288e-10, No Iterations 3
Phase-1 volume fraction = 0.130194  Min(alpha.water) = 0  Max(alpha.water) = 1
MULES: Correcting alpha.water
MULES: Correcting alpha.water
Phase-1 volume fraction = 0.130194  Min(alpha.water) = -1.3515e-06  Max(alpha.water) = 1
DICPCG:  Solving for p_rgh, Initial residual = 0.0515717, Final residual = 0.000358734, No Iterations 1
time step continuity errors : sum local = 0.00175887, global = 1.54991e-07, cumulative = 7.65579e-06
DICPCG:  Solving for p_rgh, Initial residual = 0.000402261, Final residual = 1.85802e-05, No Iterations 10
time step continuity errors : sum local = 8.75655e-05, global = 8.32043e-06, cumulative = 1.59762e-05
DICPCG:  Solving for p_rgh, Initial residual = 5.1391e-05, Final residual = 9.58951e-08, No Iterations 43
time step continuity errors : sum local = 4.5524e-07, global = -6.10001e-08, cumulative = 1.59152e-05
ExecutionTime = 0.15 s  ClockTime = 0 s

Courant Number mean: 0.0809619 max: 0.598902
Interface Courant Number mean: 0.0050504 max: 0.548544
deltaT = 0.00473396
Time = 0.045266

PIMPLE: iteration 1
smoothSolver:  Solving for alpha.water, Initial residual = 0.00345408, Final residual = 2.98274e-09, No Iterations 3
Phase-1 volume fraction = 0.130194  Min(alpha.water) = 0  Max(alpha.water) = 1
MULES: Correcting alpha.water
MULES: Correcting alpha.water
Phase-1 volume fraction = 0.130194  Min(alpha.water) = -5.89661e-06  Max(alpha.water) = 1
DICPCG:  Solving for p_rgh, Initial residual = 0.0556442, Final residual = 0.000447877, No Iterations 1
time step continuity errors : sum local = 0.00200801, global = 9.89063e-08, cumulative = 1.60141e-05
DICPCG:  Solving for p_rgh, Initial residual = 0.000500045, Final residual = 2.18186e-05, No Iterations 10
time step continuity errors : sum local = 9.37347e-05, global = 1.16745e-05, cumulative = 2.76886e-05
DICPCG:  Solving for p_rgh, Initial residual = 6.5474e-05, Final residual = 9.89686e-08, No Iterations 45
time step continuity errors : sum local = 4.2931e-07, global = 1.32268e-08, cumulative = 2.77018e-05
ExecutionTime = 0.16 s  ClockTime = 0 s

Courant Number mean: 0.0897669 max: 0.627236
Interface Courant Number mean: 0.00635175 max: 0.592676
deltaT = 0.00473396
Time = 0.05

PIMPLE: iteration 1
smoothSolver:  Solving for alpha.water, Initial residual = 0.0037836, Final residual = 5.58318e-09, No Iterations 3
Phase-1 volume fraction = 0.130194  Min(alpha.water) = 0  Max(alpha.water) = 1
MULES: Correcting alpha.water
MULES: Correcting alpha.water
Phase-1 volume fraction = 0.130194  Min(alpha.water) = -2.76151e-06  Max(alpha.water) = 1
DICPCG:  Solving for p_rgh, Initial residual = 0.056621, Final residual = 0.000550469, No Iterations 1
time step continuity errors : sum local = 0.00225142, global = 2.04354e-07, cumulative = 2.79062e-05
DICPCG:  Solving for p_rgh, Initial residual = 0.00061327, Final residual = 2.63549e-05, No Iterations 10
time step continuity errors : sum local = 0.000103189, global = 1.60289e-05, cumulative = 4.39351e-05
DICPCG:  Solving for p_rgh, Initial residual = 8.28556e-05, Final residual = 9.97106e-08, No Iterations 48
time step continuity errors : sum local = 3.95148e-07, global = -4.40167e-09, cumulative = 4.39307e-05
ExecutionTime = 0.19 s  ClockTime = 0 s

Courant Number mean: 0.0984686 max: 0.683926
Interface Courant Number mean: 0.00742143 max: 0.63528
deltaT = 0.005
Time = 0.055

PIMPLE: iteration 1
smoothSolver:  Solving for alpha.water, Initial residual = 0.0043589, Final residual = 8.72599e-11, No Iterations 4
Phase-1 volume fraction = 0.130194  Min(alpha.water) = 0  Max(alpha.water) = 1
MULES: Correcting alpha.water
MULES: Correcting alpha.water
Phase-1 volume fraction = 0.130194  Min(alpha.water) = -1.36296e-05  Max(alpha.water) = 1
DICPCG:  Solving for p_rgh, Initial residual = 0.0560031, Final residual = 0.000760105, No Iterations 1
time step continuity errors : sum local = 0.00313689, global = 7.88759e-08, cumulative = 4.40096e-05
DICPCG:  Solving for p_rgh, Initial residual = 0.000850973, Final residual = 3.95876e-05, No Iterations 10
time step continuity errors : sum local = 0.000156476, global = 2.52176e-05, cumulative = 6.92271e-05
DICPCG:  Solving for p_rgh, Initial residual = 0.000121459, Final residual = 6.80317e-08, No Iterations 50
time step continuity errors : sum local = 2.73051e-07, global = -5.14142e-09, cumulative = 6.9222e-05
ExecutionTime = 0.2 s  ClockTime = 0 s

Courant Number mean: 0.113946 max: 0.758177
Interface Courant Number mean: 0.00865937 max: 0.729994
deltaT = 0.005625
Time = 0.060625

PIMPLE: iteration 1
smoothSolver:  Solving for alpha.water, Initial residual = 0.00537054, Final residual = 3.23076e-10, No Iterations 4
Phase-1 volume fraction = 0.130194  Min(alpha.water) = 0  Max(alpha.water) = 1
MULES: Correcting alpha.water
MULES: Correcting alpha.water
Phase-1 volume fraction = 0.130194  Min(alpha.water) = -1.5079e-05  Max(alpha.water) = 1
DICPCG:  Solving for p_rgh, Initial residual = 0.0546413, Final residual = 0.0011929, No Iterations 1
time step continuity errors : sum local = 0.00563433, global = 1.49046e-07, cumulative = 6.9371e-05
DICPCG:  Solving for p_rgh, Initial residual = 0.00134562, Final residual = 5.64085e-05, No Iterations 11
time step continuity errors : sum local = 0.000255281, global = 5.16845e-05, cumulative = 0.000121056
DICPCG:  Solving for p_rgh, Initial residual = 0.000191847, Final residual = 9.7026e-08, No Iterations 47
time step continuity errors : sum local = 4.48219e-07, global = -2.14013e-08, cumulative = 0.000121034
ExecutionTime = 0.21 s  ClockTime = 0 s

Courant Number mean: 0.140697 max: 0.908983
Interface Courant Number mean: 0.0113343 max: 0.839872
deltaT = 0.005625
Time = 0.06625

PIMPLE: iteration 1
smoothSolver:  Solving for alpha.water, Initial residual = 0.00584112, Final residual = 1.82404e-09, No Iterations 4
Phase-1 volume fraction = 0.130194  Min(alpha.water) = -9.02244e-29  Max(alpha.water) = 1
MULES: Correcting alpha.water
MULES: Correcting alpha.water
Phase-1 volume fraction = 0.130194  Min(alpha.water) = -4.85873e-05  Max(alpha.water) = 1
DICPCG:  Solving for p_rgh, Initial residual = 0.0437015, Final residual = 0.00141812, No Iterations 1
time step continuity errors : sum local = 0.00632293, global = -4.04049e-07, cumulative = 0.00012063
DICPCG:  Solving for p_rgh, Initial residual = 0.00159153, Final residual = 7.31431e-05, No Iterations 10
time step continuity errors : sum local = 0.000316435, global = 6.5045e-05, cumulative = 0.000185675
DICPCG:  Solving for p_rgh, Initial residual = 0.000233064, Final residual = 8.89455e-08, No Iterations 50
time step continuity errors : sum local = 3.93835e-07, global = -3.54591e-08, cumulative = 0.00018564
ExecutionTime = 0.22 s  ClockTime = 0 s

Courant Number mean: 0.152727 max: 0.959366
Interface Courant Number mean: 0.0131179 max: 0.916185
deltaT = 0.005625
Time = 0.071875

PIMPLE: iteration 1
smoothSolver:  Solving for alpha.water, Initial residual = 0.0062531, Final residual = 3.49446e-09, No Iterations 4
Phase-1 volume fraction = 0.130194  Min(alpha.water) = 0  Max(alpha.water) = 1
MULES: Correcting alpha.water
MULES: Correcting alpha.water
Phase-1 volume fraction = 0.130194  Min(alpha.water) = -5.0752e-05  Max(alpha.water) = 1
DICPCG:  Solving for p_rgh, Initial residual = 0.0396463, Final residual = 0.00117481, No Iterations 1
time step continuity errors : sum local = 0.00552239, global = -9.52954e-07, cumulative = 0.000184687
DICPCG:  Solving for p_rgh, Initial residual = 0.00134565, Final residual = 6.20486e-05, No Iterations 11
time step continuity errors : sum local = 0.000283832, global = 6.23867e-05, cumulative = 0.000247073
DICPCG:  Solving for p_rgh, Initial residual = 0.000206169, Final residual = 9.45581e-08, No Iterations 50
time step continuity errors : sum local = 4.42914e-07, global = -4.27711e-08, cumulative = 0.000247031
ExecutionTime = 0.23 s  ClockTime = 0 s

Courant Number mean: 0.16427 max: 1.17782
Interface Courant Number mean: 0.0148981 max: 0.982979
deltaT = 0.0046875
Time = 0.0765625

PIMPLE: iteration 1
smoothSolver:  Solving for alpha.water, Initial residual = 0.00557516, Final residual = 1.88403e-09, No Iterations 4
Phase-1 volume fraction = 0.130194  Min(alpha.water) = -2.85377e-14  Max(alpha.water) = 1
MULES: Correcting alpha.water
MULES: Correcting alpha.water
Phase-1 volume fraction = 0.130194  Min(alpha.water) = -1.17069e-05  Max(alpha.water) = 1
DICPCG:  Solving for p_rgh, Initial residual = 0.066185, Final residual = 0.000733109, No Iterations 1
time step continuity errors : sum local = 0.00288488, global = -8.23449e-07, cumulative = 0.000246207
DICPCG:  Solving for p_rgh, Initial residual = 0.000851546, Final residual = 3.75075e-05, No Iterations 11
time step continuity errors : sum local = 0.000138665, global = 2.69102e-05, cumulative = 0.000273117
DICPCG:  Solving for p_rgh, Initial residual = 0.00013033, Final residual = 9.30333e-08, No Iterations 49
time step continuity errors : sum local = 3.50746e-07, global = -1.2485e-08, cumulative = 0.000273105
ExecutionTime = 0.24 s  ClockTime = 0 s

Courant Number mean: 0.144591 max: 1.15912
Interface Courant Number mean: 0.0132128 max: 0.829362
deltaT = 0.00390625
Time = 0.0804688

PIMPLE: iteration 1
smoothSolver:  Solving for alpha.water, Initial residual = 0.0049203, Final residual = 6.69539e-10, No Iterations 4
Phase-1 volume fraction = 0.130194  Min(alpha.water) = -1.2313e-14  Max(alpha.water) = 1
MULES: Correcting alpha.water
MULES: Correcting alpha.water
Phase-1 volume fraction = 0.130194  Min(alpha.water) = -3.11422e-05  Max(alpha.water) = 1
DICPCG:  Solving for p_rgh, Initial residual = 0.0495676, Final residual = 0.000898963, No Iterations 1
time step continuity errors : sum local = 0.00226637, global = -3.03288e-07, cumulative = 0.000272802
DICPCG:  Solving for p_rgh, Initial residual = 0.00101573, Final residual = 4.2681e-05, No Iterations 11
time step continuity errors : sum local = 0.000102851, global = 2.01747e-05, cumulative = 0.000292976
DICPCG:  Solving for p_rgh, Initial residual = 0.000132809, Final residual = 9.50342e-08, No Iterations 37
time step continuity errors : sum local = 2.33236e-07, global = 5.79235e-08, cumulative = 0.000293034
ExecutionTime = 0.25 s  ClockTime = 0 s

Courant Number mean: 0.125765 max: 1.11652
Interface Courant Number mean: 0.0113268 max: 0.749428
deltaT = 0.00325521
Time = 0.083724

PIMPLE: iteration 1
smoothSolver:  Solving for alpha.water, Initial residual = 0.00429726, Final residual = 2.26937e-10, No Iterations 4
Phase-1 volume fraction = 0.130194  Min(alpha.water) = -9.79815e-15  Max(alpha.water) = 1
MULES: Correcting alpha.water
MULES: Correcting alpha.water
Phase-1 volume fraction = 0.130194  Min(alpha.water) = -1.04749e-05  Max(alpha.water) = 1
DICPCG:  Solving for p_rgh, Initial residual = 0.0383773, Final residual = 0.00101448, No Iterations 1
time step continuity errors : sum local = 0.00170762, global = -1.20939e-07, cumulative = 0.000292913
DICPCG:  Solving for p_rgh, Initial residual = 0.00112964, Final residual = 4.99231e-05, No Iterations 11
time step continuity errors : sum local = 8.13781e-05, global = 1.493e-05, cumulative = 0.000307843
DICPCG:  Solving for p_rgh, Initial residual = 0.000135091, Final residual = 7.99384e-08, No Iterations 49
time step continuity errors : sum local = 1.32408e-07, global = -7.24166e-09, cumulative = 0.000307836
ExecutionTime = 0.26 s  ClockTime = 0 s

Courant Number mean: 0.108601 max: 1.06855
Interface Courant Number mean: 0.00968743 max: 0.63171
deltaT = 0.00271267
Time = 0.0864366

PIMPLE: iteration 1
smoothSolver:  Solving for alpha.water, Initial residual = 0.00371082, Final residual = 7.23202e-09, No Iterations 3
Phase-1 volume fraction = 0.130194  Min(alpha.water) = -7.99025e-15  Max(alpha.water) = 1
MULES: Correcting alpha.water
MULES: Correcting alpha.water
Phase-1 volume fraction = 0.130194  Min(alpha.water) = -2.53851e-06  Max(alpha.water) = 1
DICPCG:  Solving for p_rgh, Initial residual = 0.0297074, Final residual = 0.000863362, No Iterations 1
time step continuity errors : sum local = 0.00101453, global = -1.80282e-07, cumulative = 0.000307656
DICPCG:  Solving for p_rgh, Initial residual = 0.00095451, Final residual = 4.2103e-05, No Iterations 11
time step continuity errors : sum local = 4.83139e-05, global = 9.70215e-06, cumulative = 0.000317358
DICPCG:  Solving for p_rgh, Initial residual = 0.000103874, Final residual = 8.86817e-08, No Iterations 48
time step continuity errors : sum local = 1.03086e-07, global = -5.71288e-09, cumulative = 0.000317352
ExecutionTime = 0.27 s  ClockTime = 0 s

Courant Number mean: 0.0929337 max: 1.00623
Interface Courant Number mean: 0.00811395 max: 0.632913
deltaT = 0.00226056
Time = 0.0886972

PIMPLE: iteration 1
smoothSolver:  Solving for alpha.water, Initial residual = 0.00316324, Final residual = 2.57652e-09, No Iterations 3
Phase-1 volume fraction = 0.130194  Min(alpha.water) = -1.67457e-13  Max(alpha.water) = 1
MULES: Correcting alpha.water
MULES: Correcting alpha.water
Phase-1 volume fraction = 0.130194  Min(alpha.water) = -2.80637e-08  Max(alpha.water) = 1
DICPCG:  Solving for p_rgh, Initial residual = 0.0259761, Final residual = 0.00078515, No Iterations 1
time step continuity errors : sum local = 0.000664307, global = -1.01092e-07, cumulative = 0.000317251
DICPCG:  Solving for p_rgh, Initial residual = 0.000860495, Final residual = 4.09758e-05, No Iterations 11
time step continuity errors : sum local = 3.40003e-05, global = 5.80523e-06, cumulative = 0.000323056
DICPCG:  Solving for p_rgh, Initial residual = 8.89768e-05, Final residual = 8.49572e-08, No Iterations 47
time step continuity errors : sum local = 7.12345e-08, global = -2.28777e-09, cumulative = 0.000323054
ExecutionTime = 0.28 s  ClockTime = 0 s

Courant Number mean: 0.0790436 max: 0.91476
Interface Courant Number mean: 0.0063291 max: 0.536016
deltaT = 0.00226056
Time = 0.0909578

PIMPLE: iteration 1
smoothSolver:  Solving for alpha.water, Initial residual = 0.00324899, Final residual = 2.50626e-09, No Iterations 3
Phase-1 volume fraction = 0.130194  Min(alpha.water) = -5.92892e-15  Max(alpha.water) = 1
MULES: Correcting alpha.water
MULES: Correcting alpha.water
Phase-1 volume fraction = 0.130194  Min(alpha.water) = -6.96949e-08  Max(alpha.water) = 1
DICPCG:  Solving for p_rgh, Initial residual = 0.0294566, Final residual = 0.000656808, No Iterations 1
time step continuity errors : sum local = 0.000596428, global = -5.63357e-08, cumulative = 0.000322998
DICPCG:  Solving for p_rgh, Initial residual = 0.000725476, Final residual = 3.34418e-05, No Iterations 12
time step continuity errors : sum local = 2.96688e-05, global = 4.48322e-06, cumulative = 0.000327481
DICPCG:  Solving for p_rgh, Initial residual = 7.7777e-05, Final residual = 9.47973e-08, No Iterations 47
time step continuity errors : sum local = 8.48508e-08, global = -6.23148e-09, cumulative = 0.000327475
ExecutionTime = 0.29 s  ClockTime = 0 s

Courant Number mean: 0.0806645 max: 0.985422
Interface Courant Number mean: 0.00658951 max: 0.543233
deltaT = 0.00226056
Time = 0.0932183

PIMPLE: iteration 1
smoothSolver:  Solving for alpha.water, Initial residual = 0.00334405, Final residual = 2.62985e-09, No Iterations 3
Phase-1 volume fraction = 0.130194  Min(alpha.water) = -9.8781e-14  Max(alpha.water) = 1
MULES: Correcting alpha.water
MULES: Correcting alpha.water
Phase-1 volume fraction = 0.130194  Min(alpha.water) = -1.60077e-07  Max(alpha.water) = 1
DICPCG:  Solving for p_rgh, Initial residual = 0.0394137, Final residual = 0.000485784, No Iterations 1
time step continuity errors : sum local = 0.000497278, global = -3.83573e-08, cumulative = 0.000327436
DICPCG:  Solving for p_rgh, Initial residual = 0.000550431, Final residual = 2.23991e-05, No Iterations 13
time step continuity errors : sum local = 2.21086e-05, global = 1.86763e-06, cumulative = 0.000329304
DICPCG:  Solving for p_rgh, Initial residual = 6.69692e-05, Final residual = 9.31066e-08, No Iterations 48
time step continuity errors : sum local = 9.26852e-08, global = -6.04724e-09, cumulative = 0.000329298
ExecutionTime = 0.29 s  ClockTime = 0 s

Courant Number mean: 0.0823493 max: 1.0441
Interface Courant Number mean: 0.0070585 max: 0.550783
deltaT = 0.00169542
Time = 0.0949137

PIMPLE: iteration 1
smoothSolver:  Solving for alpha.water, Initial residual = 0.00257715, Final residual = 5.67763e-10, No Iterations 3
Phase-1 volume fraction = 0.130194  Min(alpha.water) = -8.83307e-14  Max(alpha.water) = 1
MULES: Correcting alpha.water
MULES: Correcting alpha.water
Phase-1 volume fraction = 0.130194  Min(alpha.water) = -9.114e-10  Max(alpha.water) = 1
DICPCG:  Solving for p_rgh, Initial residual = 0.02871, Final residual = 0.000489993, No Iterations 1
time step continuity errors : sum local = 0.00027231, global = -1.3665e-08, cumulative = 0.000329284
DICPCG:  Solving for p_rgh, Initial residual = 0.000539014, Final residual = 2.42112e-05, No Iterations 13
time step continuity errors : sum local = 1.3117e-05, global = 9.85103e-07, cumulative = 0.000330269
DICPCG:  Solving for p_rgh, Initial residual = 5.80963e-05, Final residual = 8.8935e-08, No Iterations 48
time step continuity errors : sum local = 4.85532e-08, global = -3.92527e-09, cumulative = 0.000330265
ExecutionTime = 0.3 s  ClockTime = 0 s

Courant Number mean: 0.0626926 max: 0.816175
Interface Courant Number mean: 0.00528141 max: 0.419196
deltaT = 0.00169542
Time = 0.0966092

PIMPLE: iteration 1
smoothSolver:  Solving for alpha.water, Initial residual = 0.00262907, Final residual = 5.75867e-10, No Iterations 3
Phase-1 volume fraction = 0.130194  Min(alpha.water) = -7.8576e-14  Max(alpha.water) = 1
MULES: Correcting alpha.water
MULES: Correcting alpha.water
Phase-1 volume fraction = 0.130194  Min(alpha.water) = -3.04225e-10  Max(alpha.water) = 1
DICPCG:  Solving for p_rgh, Initial residual = 0.0284822, Final residual = 0.000584102, No Iterations 1
time step continuity errors : sum local = 0.000312957, global = -3.40718e-09, cumulative = 0.000330262
DICPCG:  Solving for p_rgh, Initial residual = 0.000636628, Final residual = 3.09954e-05, No Iterations 12
time step continuity errors : sum local = 1.61947e-05, global = 1.77429e-06, cumulative = 0.000332036
DICPCG:  Solving for p_rgh, Initial residual = 6.61136e-05, Final residual = 9.72604e-08, No Iterations 46
time step continuity errors : sum local = 5.11464e-08, global = -3.14959e-09, cumulative = 0.000332033
ExecutionTime = 0.31 s  ClockTime = 0 s

Courant Number mean: 0.0637368 max: 0.842502
Interface Courant Number mean: 0.00547112 max: 0.755576
deltaT = 0.00169542
Time = 0.0983046

PIMPLE: iteration 1
smoothSolver:  Solving for alpha.water, Initial residual = 0.00268489, Final residual = 5.96921e-10, No Iterations 3
Phase-1 volume fraction = 0.130194  Min(alpha.water) = -6.94586e-14  Max(alpha.water) = 1
MULES: Correcting alpha.water
MULES: Correcting alpha.water
Phase-1 volume fraction = 0.130194  Min(alpha.water) = -5.19568e-13  Max(alpha.water) = 1
DICPCG:  Solving for p_rgh, Initial residual = 0.0266255, Final residual = 0.000648881, No Iterations 1
time step continuity errors : sum local = 0.000333139, global = -4.71151e-09, cumulative = 0.000332028
DICPCG:  Solving for p_rgh, Initial residual = 0.000708225, Final residual = 3.34521e-05, No Iterations 11
time step continuity errors : sum local = 1.67993e-05, global = 2.44194e-06, cumulative = 0.00033447
DICPCG:  Solving for p_rgh, Initial residual = 7.07506e-05, Final residual = 9.5707e-08, No Iterations 45
time step continuity errors : sum local = 4.83701e-08, global = -4.44199e-09, cumulative = 0.000334466
ExecutionTime = 0.32 s  ClockTime = 0 s

Courant Number mean: 0.0647624 max: 0.858985
Interface Courant Number mean: 0.00527906 max: 0.813125
deltaT = 0.00169542
Time = 0.1

PIMPLE: iteration 1
smoothSolver:  Solving for alpha.water, Initial residual = 0.00273798, Final residual = 6.39589e-10, No Iterations 3
Phase-1 volume fraction = 0.130194  Min(alpha.water) = -6.09255e-14  Max(alpha.water) = 1
MULES: Correcting alpha.water
MULES: Correcting alpha.water
Phase-1 volume fraction = 0.130194  Min(alpha.water) = -4.97995e-11  Max(alpha.water) = 1
DICPCG:  Solving for p_rgh, Initial residual = 0.0250637, Final residual = 0.00057798, No Iterations 1
time step continuity errors : sum local = 0.000291981, global = -1.84892e-08, cumulative = 0.000334447
DICPCG:  Solving for p_rgh, Initial residual = 0.000642092, Final residual = 3.17547e-05, No Iterations 11
time step continuity errors : sum local = 1.57122e-05, global = 2.06272e-06, cumulative = 0.00033651
DICPCG:  Solving for p_rgh, Initial residual = 7.22235e-05, Final residual = 9.07746e-08, No Iterations 44
time step continuity errors : sum local = 4.52099e-08, global = -3.73291e-09, cumulative = 0.000336506
ExecutionTime = 0.35 s  ClockTime = 0 s

Courant Number mean: 0.065759 max: 0.853732
Interface Courant Number mean: 0.00567141 max: 0.792677
deltaT = 0.00185185
Time = 0.101852

PIMPLE: iteration 1
smoothSolver:  Solving for alpha.water, Initial residual = 0.00303234, Final residual = 1.20459e-09, No Iterations 3
Phase-1 volume fraction = 0.130194  Min(alpha.water) = -5.16906e-14  Max(alpha.water) = 1
MULES: Correcting alpha.water
MULES: Correcting alpha.water
Phase-1 volume fraction = 0.130194  Min(alpha.water) = -6.47687e-11  Max(alpha.water) = 1
DICPCG:  Solving for p_rgh, Initial residual = 0.0265978, Final residual = 0.000616941, No Iterations 1
time step continuity errors : sum local = 0.000367609, global = -1.02371e-08, cumulative = 0.000336496
DICPCG:  Solving for p_rgh, Initial residual = 0.000691829, Final residual = 3.42727e-05, No Iterations 11
time step continuity errors : sum local = 1.9962e-05, global = 2.75233e-06, cumulative = 0.000339248
DICPCG:  Solving for p_rgh, Initial residual = 7.50836e-05, Final residual = 8.82064e-08, No Iterations 43
time step continuity errors : sum local = 5.17449e-08, global = -6.77261e-09, cumulative = 0.000339242
ExecutionTime = 0.36 s  ClockTime = 0 s

Courant Number mean: 0.0729006 max: 0.918017
Interface Courant Number mean: 0.00616495 max: 0.918017
deltaT = 0.00200617
Time = 0.103858

PIMPLE: iteration 1
smoothSolver:  Solving for alpha.water, Initial residual = 0.00334154, Final residual = 2.19509e-09, No Iterations 3
Phase-1 volume fraction = 0.130194  Min(alpha.water) = -4.09994e-14  Max(alpha.water) = 1
MULES: Correcting alpha.water
MULES: Correcting alpha.water
Phase-1 volume fraction = 0.130194  Min(alpha.water) = -9.61974e-11  Max(alpha.water) = 1
DICPCG:  Solving for p_rgh, Initial residual = 0.0272913, Final residual = 0.000718992, No Iterations 1
time step continuity errors : sum local = 0.000494109, global = -3.4232e-08, cumulative = 0.000339207
DICPCG:  Solving for p_rgh, Initial residual = 0.000808959, Final residual = 2.878e-05, No Iterations 12
time step continuity errors : sum local = 1.93349e-05, global = 3.47084e-06, cumulative = 0.000342678
DICPCG:  Solving for p_rgh, Initial residual = 8.76525e-05, Final residual = 8.09163e-08, No Iterations 46
time step continuity errors : sum local = 5.4812e-08, global = -1.60718e-09, cumulative = 0.000342677
ExecutionTime = 0.37 s  ClockTime = 0 s

Courant Number mean: 0.0801924 max: 0.966706
Interface Courant Number mean: 0.00635647 max: 0.966706
deltaT = 0.00200617
Time = 0.105864

PIMPLE: iteration 1
smoothSolver:  Solving for alpha.water, Initial residual = 0.00342171, Final residual = 2.49666e-09, No Iterations 3
Phase-1 volume fraction = 0.130194  Min(alpha.water) = -3.00256e-14  Max(alpha.water) = 1
MULES: Correcting alpha.water
MULES: Correcting alpha.water
Phase-1 volume fraction = 0.130194  Min(alpha.water) = -3.77417e-08  Max(alpha.water) = 1
DICPCG:  Solving for p_rgh, Initial residual = 0.0282601, Final residual = 0.000736802, No Iterations 1
time step continuity errors : sum local = 0.00051764, global = -2.19486e-08, cumulative = 0.000342655
DICPCG:  Solving for p_rgh, Initial residual = 0.000826592, Final residual = 3.97586e-05, No Iterations 11
time step continuity errors : sum local = 2.72855e-05, global = 3.54913e-06, cumulative = 0.000346204
DICPCG:  Solving for p_rgh, Initial residual = 9.82517e-05, Final residual = 8.54942e-08, No Iterations 45
time step continuity errors : sum local = 5.91661e-08, global = -5.59325e-09, cumulative = 0.000346198
ExecutionTime = 0.37 s  ClockTime = 0 s

Courant Number mean: 0.0814182 max: 0.950166
Interface Courant Number mean: 0.00717017 max: 0.950166
deltaT = 0.0021017
Time = 0.107966

PIMPLE: iteration 1
smoothSolver:  Solving for alpha.water, Initial residual = 0.0036485, Final residual = 3.42217e-09, No Iterations 3
Phase-1 volume fraction = 0.130194  Min(alpha.water) = -1.57027e-14  Max(alpha.water) = 1
MULES: Correcting alpha.water
MULES: Correcting alpha.water
Phase-1 volume fraction = 0.130194  Min(alpha.water) = -2.464e-08  Max(alpha.water) = 1
DICPCG:  Solving for p_rgh, Initial residual = 0.02961, Final residual = 0.000745971, No Iterations 1
time step continuity errors : sum local = 0.000589249, global = -4.03066e-08, cumulative = 0.000346158
DICPCG:  Solving for p_rgh, Initial residual = 0.000847437, Final residual = 3.14481e-05, No Iterations 12
time step continuity errors : sum local = 2.42712e-05, global = 3.73261e-06, cumulative = 0.000349891
DICPCG:  Solving for p_rgh, Initial residual = 0.000103258, Final residual = 8.36225e-08, No Iterations 46
time step continuity errors : sum local = 6.51026e-08, global = -6.65162e-09, cumulative = 0.000349884
ExecutionTime = 0.38 s  ClockTime = 0 s

Courant Number mean: 0.0867868 max: 1.0257
Interface Courant Number mean: 0.00753445 max: 1.0257
deltaT = 0.00200162
Time = 0.109968

PIMPLE: iteration 1
smoothSolver:  Solving for alpha.water, Initial residual = 0.00355036, Final residual = 2.95843e-09, No Iterations 3
Phase-1 volume fraction = 0.130194  Min(alpha.water) = -2.33759e-15  Max(alpha.water) = 1
MULES: Correcting alpha.water
MULES: Correcting alpha.water
Phase-1 volume fraction = 0.130194  Min(alpha.water) = -1.2185e-08  Max(alpha.water) = 1
DICPCG:  Solving for p_rgh, Initial residual = 0.0325569, Final residual = 0.000574395, No Iterations 1
time step continuity errors : sum local = 0.000445167, global = -2.89531e-08, cumulative = 0.000349855
DICPCG:  Solving for p_rgh, Initial residual = 0.00067177, Final residual = 2.63923e-05, No Iterations 12
time step continuity errors : sum local = 1.98514e-05, global = 2.6357e-06, cumulative = 0.000352491
DICPCG:  Solving for p_rgh, Initial residual = 9.0054e-05, Final residual = 8.36925e-08, No Iterations 46
time step continuity errors : sum local = 6.34663e-08, global = -6.44945e-09, cumulative = 0.000352484
ExecutionTime = 0.39 s  ClockTime = 0 s

Courant Number mean: 0.0840291 max: 1.01949
Interface Courant Number mean: 0.00730058 max: 0.883699
deltaT = 0.00190631
Time = 0.111874

PIMPLE: iteration 1
smoothSolver:  Solving for alpha.water, Initial residual = 0.00342165, Final residual = 2.44737e-09, No Iterations 3
Phase-1 volume fraction = 0.130194  Min(alpha.water) = -1.84659e-15  Max(alpha.water) = 1
MULES: Correcting alpha.water
MULES: Correcting alpha.water
Phase-1 volume fraction = 0.130194  Min(alpha.water) = -4.3598e-08  Max(alpha.water) = 1
DICPCG:  Solving for p_rgh, Initial residual = 0.0328088, Final residual = 0.000600439, No Iterations 1
time step continuity errors : sum local = 0.000421136, global = -1.81689e-08, cumulative = 0.000352466
DICPCG:  Solving for p_rgh, Initial residual = 0.000687279, Final residual = 2.59173e-05, No Iterations 12
time step continuity errors : sum local = 1.76498e-05, global = 2.87271e-06, cumulative = 0.000355339
DICPCG:  Solving for p_rgh, Initial residual = 8.35931e-05, Final residual = 8.77488e-08, No Iterations 42
time step continuity errors : sum local = 6.02198e-08, global = 7.39817e-09, cumulative = 0.000355346
ExecutionTime = 0.4 s  ClockTime = 0 s

Courant Number mean: 0.0811997 max: 1.02002
Interface Courant Number mean: 0.00710387 max: 0.876994
deltaT = 0.00181553
Time = 0.113689

PIMPLE: iteration 1
smoothSolver:  Solving for alpha.water, Initial residual = 0.00331065, Final residual = 1.92096e-09, No Iterations 3
Phase-1 volume fraction = 0.130194  Min(alpha.water) = -1.40763e-15  Max(alpha.water) = 1
MULES: Correcting alpha.water
MULES: Correcting alpha.water
Phase-1 volume fraction = 0.130194  Min(alpha.water) = -5.46816e-08  Max(alpha.water) = 1
DICPCG:  Solving for p_rgh, Initial residual = 0.0290309, Final residual = 0.000550399, No Iterations 1
time step continuity errors : sum local = 0.000339097, global = -4.26648e-09, cumulative = 0.000355342
DICPCG:  Solving for p_rgh, Initial residual = 0.000634009, Final residual = 2.19024e-05, No Iterations 12
time step continuity errors : sum local = 1.31466e-05, global = 2.2248e-06, cumulative = 0.000357567
DICPCG:  Solving for p_rgh, Initial residual = 7.08074e-05, Final residual = 9.34863e-08, No Iterations 42
time step continuity errors : sum local = 5.65313e-08, global = 6.08609e-09, cumulative = 0.000357573
ExecutionTime = 0.4 s  ClockTime = 0 s

Courant Number mean: 0.0783079 max: 1.02927
Interface Courant Number mean: 0.00621389 max: 0.870431
deltaT = 0.00172908
Time = 0.115418

PIMPLE: iteration 1
smoothSolver:  Solving for alpha.water, Initial residual = 0.00323677, Final residual = 1.47751e-09, No Iterations 3
Phase-1 volume fraction = 0.130194  Min(alpha.water) = -1.20655e-15  Max(alpha.water) = 1
MULES: Correcting alpha.water
MULES: Correcting alpha.water
Phase-1 volume fraction = 0.130194  Min(alpha.water) = -1.50701e-07  Max(alpha.water) = 1
DICPCG:  Solving for p_rgh, Initial residual = 0.0274557, Final residual = 0.000558929, No Iterations 1
time step continuity errors : sum local = 0.0003075, global = -1.31569e-08, cumulative = 0.00035756
DICPCG:  Solving for p_rgh, Initial residual = 0.000642606, Final residual = 3.16045e-05, No Iterations 11
time step continuity errors : sum local = 1.6976e-05, global = 1.70258e-06, cumulative = 0.000359262
DICPCG:  Solving for p_rgh, Initial residual = 7.93366e-05, Final residual = 7.38978e-08, No Iterations 45
time step continuity errors : sum local = 3.99869e-08, global = -2.20973e-09, cumulative = 0.00035926
ExecutionTime = 0.41 s  ClockTime = 0 s

Courant Number mean: 0.0753813 max: 1.0514
Interface Courant Number mean: 0.00621706 max: 0.852559
deltaT = 0.00157189
Time = 0.11699

PIMPLE: iteration 1
smoothSolver:  Solving for alpha.water, Initial residual = 0.00299355, Final residual = 8.99287e-10, No Iterations 3
Phase-1 volume fraction = 0.130194  Min(alpha.water) = -1.06226e-15  Max(alpha.water) = 1
MULES: Correcting alpha.water
MULES: Correcting alpha.water
Phase-1 volume fraction = 0.130194  Min(alpha.water) = -3.27437e-07  Max(alpha.water) = 1
DICPCG:  Solving for p_rgh, Initial residual = 0.0253848, Final residual = 0.000545538, No Iterations 1
time step continuity errors : sum local = 0.000246612, global = -2.45642e-08, cumulative = 0.000359235
DICPCG:  Solving for p_rgh, Initial residual = 0.000620631, Final residual = 2.09483e-05, No Iterations 12
time step continuity errors : sum local = 9.27081e-06, global = 1.45393e-06, cumulative = 0.000360689
DICPCG:  Solving for p_rgh, Initial residual = 6.56796e-05, Final residual = 8.08508e-08, No Iterations 40
time step continuity errors : sum local = 3.60313e-08, global = 3.56e-09, cumulative = 0.000360693
ExecutionTime = 0.42 s  ClockTime = 0 s

Courant Number mean: 0.0691439 max: 1.00485
Interface Courant Number mean: 0.00575793 max: 0.915146
deltaT = 0.00150044
Time = 0.118491

PIMPLE: iteration 1
smoothSolver:  Solving for alpha.water, Initial residual = 0.00289391, Final residual = 6.99118e-10, No Iterations 3
Phase-1 volume fraction = 0.130194  Min(alpha.water) = -9.31183e-16  Max(alpha.water) = 1
MULES: Correcting alpha.water
MULES: Correcting alpha.water
Phase-1 volume fraction = 0.130194  Min(alpha.water) = -5.76652e-07  Max(alpha.water) = 1
DICPCG:  Solving for p_rgh, Initial residual = 0.023381, Final residual = 0.00056461, No Iterations 1
time step continuity errors : sum local = 0.000231299, global = -2.60211e-09, cumulative = 0.00036069
DICPCG:  Solving for p_rgh, Initial residual = 0.000646512, Final residual = 3.18842e-05, No Iterations 11
time step continuity errors : sum local = 1.28168e-05, global = 1.10617e-06, cumulative = 0.000361796
DICPCG:  Solving for p_rgh, Initial residual = 7.70124e-05, Final residual = 9.49731e-08, No Iterations 44
time step continuity errors : sum local = 3.84297e-08, global = -2.91655e-09, cumulative = 0.000361794
ExecutionTime = 0.43 s  ClockTime = 0 s

Courant Number mean: 0.0665483 max: 0.99482
Interface Courant Number mean: 0.00541985 max: 0.895259
deltaT = 0.00150044
Time = 0.119991

PIMPLE: iteration 1
smoothSolver:  Solving for alpha.water, Initial residual = 0.00291684, Final residual = 7.09043e-10, No Iterations 3
Phase-1 volume fraction = 0.130194  Min(alpha.water) = -8.03173e-16  Max(alpha.water) = 1
MULES: Correcting alpha.water
MULES: Correcting alpha.water
Phase-1 volume fraction = 0.130194  Min(alpha.water) = -1.09548e-08  Max(alpha.water) = 1
DICPCG:  Solving for p_rgh, Initial residual = 0.0221937, Final residual = 0.000607934, No Iterations 1
time step continuity errors : sum local = 0.000246935, global = -1.48421e-08, cumulative = 0.000361779
DICPCG:  Solving for p_rgh, Initial residual = 0.000697927, Final residual = 3.21167e-05, No Iterations 11
time step continuity errors : sum local = 1.28233e-05, global = 1.07833e-06, cumulative = 0.000362857
DICPCG:  Solving for p_rgh, Initial residual = 8.19797e-05, Final residual = 6.4652e-08, No Iterations 45
time step continuity errors : sum local = 2.59764e-08, global = -1.88135e-09, cumulative = 0.000362855
ExecutionTime = 0.44 s  ClockTime = 0 s

Courant Number mean: 0.0671282 max: 1.03537
Interface Courant Number mean: 0.00571279 max: 0.913107
deltaT = 0.00142899
Time = 0.12142

PIMPLE: iteration 1
smoothSolver:  Solving for alpha.water, Initial residual = 0.00278167, Final residual = 5.34823e-10, No Iterations 3
Phase-1 volume fraction = 0.130194  Min(alpha.water) = -6.84003e-16  Max(alpha.water) = 1
MULES: Correcting alpha.water
MULES: Correcting alpha.water
Phase-1 volume fraction = 0.130194  Min(alpha.water) = -3.87722e-09  Max(alpha.water) = 1
DICPCG:  Solving for p_rgh, Initial residual = 0.0201584, Final residual = 0.000573387, No Iterations 1
time step continuity errors : sum local = 0.000212663, global = -5.51628e-09, cumulative = 0.00036285
DICPCG:  Solving for p_rgh, Initial residual = 0.000653327, Final residual = 3.11759e-05, No Iterations 11
time step continuity errors : sum local = 1.13873e-05, global = 9.05465e-07, cumulative = 0.000363755
DICPCG:  Solving for p_rgh, Initial residual = 7.5713e-05, Final residual = 9.73501e-08, No Iterations 44
time step continuity errors : sum local = 3.57905e-08, global = -2.62979e-09, cumulative = 0.000363752
ExecutionTime = 0.45 s  ClockTime = 0 s

Courant Number mean: 0.0645113 max: 1.02763
Interface Courant Number mean: 0.00531929 max: 0.880882
deltaT = 0.00136094
Time = 0.122781

PIMPLE: iteration 1
smoothSolver:  Solving for alpha.water, Initial residual = 0.00265354, Final residual = 3.96477e-10, No Iterations 3
Phase-1 volume fraction = 0.130194  Min(alpha.water) = -5.71618e-16  Max(alpha.water) = 1
MULES: Correcting alpha.water
MULES: Correcting alpha.water
Phase-1 volume fraction = 0.130194  Min(alpha.water) = -5.4341e-09  Max(alpha.water) = 1
DICPCG:  Solving for p_rgh, Initial residual = 0.0205471, Final residual = 0.000587385, No Iterations 1
time step continuity errors : sum local = 0.000202423, global = -4.80298e-09, cumulative = 0.000363748
DICPCG:  Solving for p_rgh, Initial residual = 0.000667098, Final residual = 3.30067e-05, No Iterations 8
time step continuity errors : sum local = 1.12026e-05, global = 1.13136e-07, cumulative = 0.000363861
DICPCG:  Solving for p_rgh, Initial residual = 7.50086e-05, Final residual = 9.29817e-08, No Iterations 45
time step continuity errors : sum local = 3.17006e-08, global = -2.30817e-09, cumulative = 0.000363859
ExecutionTime = 0.46 s  ClockTime = 0 s

Courant Number mean: 0.0619269 max: 1.01118
Interface Courant Number mean: 0.00496685 max: 0.959137
deltaT = 0.00129614
Time = 0.124077

PIMPLE: iteration 1
smoothSolver:  Solving for alpha.water, Initial residual = 0.00253518, Final residual = 3.03534e-10, No Iterations 3
Phase-1 volume fraction = 0.130194  Min(alpha.water) = -4.85591e-16  Max(alpha.water) = 1
MULES: Correcting alpha.water
MULES: Correcting alpha.water
Phase-1 volume fraction = 0.130194  Min(alpha.water) = -2.38168e-09  Max(alpha.water) = 1
DICPCG:  Solving for p_rgh, Initial residual = 0.0202852, Final residual = 0.000534137, No Iterations 1
time step continuity errors : sum local = 0.000172002, global = -1.59042e-09, cumulative = 0.000363857
DICPCG:  Solving for p_rgh, Initial residual = 0.000628443, Final residual = 2.99375e-05, No Iterations 9
time step continuity errors : sum local = 9.51024e-06, global = 1.4109e-07, cumulative = 0.000363998
DICPCG:  Solving for p_rgh, Initial residual = 7.01724e-05, Final residual = 9.04079e-08, No Iterations 31
time step continuity errors : sum local = 2.88622e-08, global = 8.11327e-09, cumulative = 0.000364006
ExecutionTime = 0.46 s  ClockTime = 0 s

Courant Number mean: 0.0594569 max: 0.984253
Interface Courant Number mean: 0.00466105 max: 0.911276
deltaT = 0.00129614
Time = 0.125373

PIMPLE: iteration 1
smoothSolver:  Solving for alpha.water, Initial residual = 0.00255305, Final residual = 3.1135e-10, No Iterations 3
Phase-1 volume fraction = 0.130194  Min(alpha.water) = -4.54808e-16  Max(alpha.water) = 1
MULES: Correcting alpha.water
MULES: Correcting alpha.water
Phase-1 volume fraction = 0.130194  Min(alpha.water) = -3.81192e-09  Max(alpha.water) = 1
DICPCG:  Solving for p_rgh, Initial residual = 0.0199137, Final residual = 0.000468803, No Iterations 1
time step continuity errors : sum local = 0.000156221, global = 2.03754e-08, cumulative = 0.000364026
DICPCG:  Solving for p_rgh, Initial residual = 0.000550582, Final residual = 2.49223e-05, No Iterations 8
time step continuity errors : sum local = 8.1843e-06, global = 6.47032e-08, cumulative = 0.000364091
DICPCG:  Solving for p_rgh, Initial residual = 6.4317e-05, Final residual = 7.04708e-08, No Iterations 48
time step continuity errors : sum local = 2.32555e-08, global = -7.57224e-10, cumulative = 0.00036409
ExecutionTime = 0.47 s  ClockTime = 0 s

Courant Number mean: 0.0598918 max: 0.995833
Interface Courant Number mean: 0.00464382 max: 0.907451
deltaT = 0.00129614
Time = 0.12667

PIMPLE: iteration 1
smoothSolver:  Solving for alpha.water, Initial residual = 0.00258085, Final residual = 3.17171e-10, No Iterations 3
Phase-1 volume fraction = 0.130194  Min(alpha.water) = -4.26075e-16  Max(alpha.water) = 1
MULES: Correcting alpha.water
MULES: Correcting alpha.water
Phase-1 volume fraction = 0.130194  Min(alpha.water) = -8.74822e-10  Max(alpha.water) = 1
DICPCG:  Solving for p_rgh, Initial residual = 0.0234972, Final residual = 0.000386456, No Iterations 1
time step continuity errors : sum local = 0.000137084, global = -9.42229e-09, cumulative = 0.000364081
DICPCG:  Solving for p_rgh, Initial residual = 0.000462999, Final residual = 2.12728e-05, No Iterations 12
time step continuity errors : sum local = 7.40051e-06, global = 5.06287e-07, cumulative = 0.000364587
DICPCG:  Solving for p_rgh, Initial residual = 5.89143e-05, Final residual = 7.74091e-08, No Iterations 44
time step continuity errors : sum local = 2.71126e-08, global = 2.31089e-10, cumulative = 0.000364588
ExecutionTime = 0.49 s  ClockTime = 0 s

Courant Number mean: 0.0603377 max: 0.992558
Interface Courant Number mean: 0.00474478 max: 0.895341
deltaT = 0.00129614
Time = 0.127966

PIMPLE: iteration 1
smoothSolver:  Solving for alpha.water, Initial residual = 0.00260113, Final residual = 3.26261e-10, No Iterations 3
Phase-1 volume fraction = 0.130194  Min(alpha.water) = -4.1506e-16  Max(alpha.water) = 1
MULES: Correcting alpha.water
MULES: Correcting alpha.water
Phase-1 volume fraction = 0.130194  Min(alpha.water) = -3.15058e-10  Max(alpha.water) = 1
DICPCG:  Solving for p_rgh, Initial residual = 0.0224008, Final residual = 0.000418282, No Iterations 1
time step continuity errors : sum local = 0.000144312, global = -3.13131e-09, cumulative = 0.000364584
DICPCG:  Solving for p_rgh, Initial residual = 0.000498907, Final residual = 2.40202e-05, No Iterations 12
time step continuity errors : sum local = 8.14238e-06, global = 4.85072e-07, cumulative = 0.000365069
DICPCG:  Solving for p_rgh, Initial residual = 6.4771e-05, Final residual = 8.0919e-08, No Iterations 44
time step continuity errors : sum local = 2.76371e-08, global = 9.02014e-10, cumulative = 0.00036507
ExecutionTime = 0.49 s  ClockTime = 0 s

Courant Number mean: 0.0608027 max: 0.98005
Interface Courant Number mean: 0.00498732 max: 0.878214
deltaT = 0.00129614
Time = 0.129262

PIMPLE: iteration 1
smoothSolver:  Solving for alpha.water, Initial residual = 0.00263978, Final residual = 3.29798e-10, No Iterations 3
Phase-1 volume fraction = 0.130194  Min(alpha.water) = -4.01803e-16  Max(alpha.water) = 1
MULES: Correcting alpha.water
MULES: Correcting alpha.water
Phase-1 volume fraction = 0.130194  Min(alpha.water) = -2.82816e-10  Max(alpha.water) = 1
DICPCG:  Solving for p_rgh, Initial residual = 0.0222407, Final residual = 0.000439349, No Iterations 1
time step continuity errors : sum local = 0.000149705, global = -9.52033e-10, cumulative = 0.000365069
DICPCG:  Solving for p_rgh, Initial residual = 0.000524355, Final residual = 2.08756e-05, No Iterations 13
time step continuity errors : sum local = 6.98723e-06, global = 5.79082e-07, cumulative = 0.000365649
DICPCG:  Solving for p_rgh, Initial residual = 6.93821e-05, Final residual = 8.75453e-08, No Iterations 43
time step continuity errors : sum local = 2.95675e-08, global = -1.76426e-09, cumulative = 0.000365647
ExecutionTime = 0.5 s  ClockTime = 0 s

Courant Number mean: 0.0612719 max: 0.955943
Interface Courant Number mean: 0.005175 max: 0.955943
deltaT = 0.00129614
Time = 0.130558

PIMPLE: iteration 1
smoothSolver:  Solving for alpha.water, Initial residual = 0.00266064, Final residual = 3.29326e-10, No Iterations 3
Phase-1 volume fraction = 0.130194  Min(alpha.water) = -3.86121e-16  Max(alpha.water) = 1
MULES: Correcting alpha.water
MULES: Correcting alpha.water
Phase-1 volume fraction = 0.130194  Min(alpha.water) = -1.88171e-10  Max(alpha.water) = 1
DICPCG:  Solving for p_rgh, Initial residual = 0.0208144, Final residual = 0.000523263, No Iterations 1
time step continuity errors : sum local = 0.000173353, global = -7.05451e-09, cumulative = 0.00036564
DICPCG:  Solving for p_rgh, Initial residual = 0.00061231, Final residual = 2.60953e-05, No Iterations 13
time step continuity errors : sum local = 8.5155e-06, global = 6.22894e-07, cumulative = 0.000366263
DICPCG:  Solving for p_rgh, Initial residual = 8.3363e-05, Final residual = 6.54881e-08, No Iterations 49
time step continuity errors : sum local = 2.15811e-08, global = -9.40945e-10, cumulative = 0.000366262
ExecutionTime = 0.51 s  ClockTime = 0 s

Courant Number mean: 0.0617438 max: 0.923882
Interface Courant Number mean: 0.00512655 max: 0.923882
deltaT = 0.00138872
Time = 0.131947

PIMPLE: iteration 1
smoothSolver:  Solving for alpha.water, Initial residual = 0.00289294, Final residual = 4.92258e-10, No Iterations 3
Phase-1 volume fraction = 0.130194  Min(alpha.water) = -3.66355e-16  Max(alpha.water) = 1
MULES: Correcting alpha.water
MULES: Correcting alpha.water
Phase-1 volume fraction = 0.130194  Min(alpha.water) = -8.83555e-10  Max(alpha.water) = 1
DICPCG:  Solving for p_rgh, Initial residual = 0.0210357, Final residual = 0.000556114, No Iterations 1
time step continuity errors : sum local = 0.000208762, global = -1.75635e-09, cumulative = 0.00036626
DICPCG:  Solving for p_rgh, Initial residual = 0.00068437, Final residual = 3.31643e-05, No Iterations 10
time step continuity errors : sum local = 1.22507e-05, global = 2.05517e-07, cumulative = 0.000366465
DICPCG:  Solving for p_rgh, Initial residual = 9.97294e-05, Final residual = 9.73278e-08, No Iterations 44
time step continuity errors : sum local = 3.6264e-08, global = 2.07259e-09, cumulative = 0.000366467
ExecutionTime = 0.52 s  ClockTime = 0 s

Courant Number mean: 0.0667317 max: 0.951025
Interface Courant Number mean: 0.00554287 max: 0.951025
deltaT = 0.00138872
Time = 0.133335

PIMPLE: iteration 1
smoothSolver:  Solving for alpha.water, Initial residual = 0.00294141, Final residual = 4.83634e-10, No Iterations 3
Phase-1 volume fraction = 0.130194  Min(alpha.water) = -3.44146e-16  Max(alpha.water) = 1
MULES: Correcting alpha.water
MULES: Correcting alpha.water
Phase-1 volume fraction = 0.130194  Min(alpha.water) = -6.10171e-11  Max(alpha.water) = 1
DICPCG:  Solving for p_rgh, Initial residual = 0.0191346, Final residual = 0.000600193, No Iterations 1
time step continuity errors : sum local = 0.000222542, global = 6.77832e-09, cumulative = 0.000366474
DICPCG:  Solving for p_rgh, Initial residual = 0.000757884, Final residual = 3.55349e-05, No Iterations 13
time step continuity errors : sum local = 1.30054e-05, global = 7.8689e-07, cumulative = 0.000367261
DICPCG:  Solving for p_rgh, Initial residual = 0.00011811, Final residual = 8.60636e-08, No Iterations 49
time step continuity errors : sum local = 3.18849e-08, global = -7.07075e-10, cumulative = 0.00036726
ExecutionTime = 0.53 s  ClockTime = 0 s

Courant Number mean: 0.0673258 max: 0.896187
Interface Courant Number mean: 0.00597368 max: 0.896187
deltaT = 0.00151496
Time = 0.13485

PIMPLE: iteration 1
smoothSolver:  Solving for alpha.water, Initial residual = 0.00324625, Final residual = 8.09214e-10, No Iterations 3
Phase-1 volume fraction = 0.130194  Min(alpha.water) = -3.16589e-16  Max(alpha.water) = 1
MULES: Correcting alpha.water
MULES: Correcting alpha.water
Phase-1 volume fraction = 0.130194  Min(alpha.water) = -5.11974e-11  Max(alpha.water) = 1
DICPCG:  Solving for p_rgh, Initial residual = 0.02127, Final residual = 0.000641782, No Iterations 1
time step continuity errors : sum local = 0.000284992, global = -8.62853e-09, cumulative = 0.000367252
DICPCG:  Solving for p_rgh, Initial residual = 0.000785668, Final residual = 3.82701e-05, No Iterations 9
time step continuity errors : sum local = 1.67564e-05, global = 1.25572e-07, cumulative = 0.000367377
DICPCG:  Solving for p_rgh, Initial residual = 0.000122315, Final residual = 9.08904e-08, No Iterations 45
time step continuity errors : sum local = 4.02356e-08, global = 1.1081e-09, cumulative = 0.000367378
ExecutionTime = 0.55 s  ClockTime = 0 s

Courant Number mean: 0.0741118 max: 0.913104
Interface Courant Number mean: 0.00638223 max: 0.913104
deltaT = 0.00151496
Time = 0.136365

PIMPLE: iteration 1
smoothSolver:  Solving for alpha.water, Initial residual = 0.00329426, Final residual = 8.14783e-10, No Iterations 3
Phase-1 volume fraction = 0.130194  Min(alpha.water) = -2.85441e-16  Max(alpha.water) = 1
MULES: Correcting alpha.water
MULES: Correcting alpha.water
Phase-1 volume fraction = 0.130194  Min(alpha.water) = -2.24076e-12  Max(alpha.water) = 1
DICPCG:  Solving for p_rgh, Initial residual = 0.0211795, Final residual = 0.000614532, No Iterations 1
time step continuity errors : sum local = 0.00027645, global = 2.02538e-09, cumulative = 0.000367381
DICPCG:  Solving for p_rgh, Initial residual = 0.00073476, Final residual = 3.269e-05, No Iterations 9
time step continuity errors : sum local = 1.44898e-05, global = 1.18262e-07, cumulative = 0.000367499
DICPCG:  Solving for p_rgh, Initial residual = 0.000106237, Final residual = 9.23911e-08, No Iterations 48
time step continuity errors : sum local = 4.13209e-08, global = -4.11156e-10, cumulative = 0.000367498
ExecutionTime = 0.56 s  ClockTime = 0 s

Courant Number mean: 0.0746582 max: 0.863788
Interface Courant Number mean: 0.00605447 max: 0.863788
deltaT = 0.00151496
Time = 0.13788

PIMPLE: iteration 1
smoothSolver:  Solving for alpha.water, Initial residual = 0.00333032, Final residual = 8.21139e-10, No Iterations 3
Phase-1 volume fraction = 0.130194  Min(alpha.water) = -2.49379e-16  Max(alpha.water) = 1
MULES: Correcting alpha.water
MULES: Correcting alpha.water
Phase-1 volume fraction = 0.130194  Min(alpha.water) = -2.63847e-12  Max(alpha.water) = 1
DICPCG:  Solving for p_rgh, Initial residual = 0.0195084, Final residual = 0.00058456, No Iterations 1
time step continuity errors : sum local = 0.000263944, global = -3.69798e-09, cumulative = 0.000367495
DICPCG:  Solving for p_rgh, Initial residual = 0.000695229, Final residual = 3.43143e-05, No Iterations 10
time step continuity errors : sum local = 1.5295e-05, global = 2.49463e-07, cumulative = 0.000367744
DICPCG:  Solving for p_rgh, Initial residual = 0.000103709, Final residual = 9.34945e-08, No Iterations 44
time step continuity errors : sum local = 4.21581e-08, global = 3.65049e-09, cumulative = 0.000367748
ExecutionTime = 0.57 s  ClockTime = 0 s

Courant Number mean: 0.0751488 max: 0.842535
Interface Courant Number mean: 0.00622687 max: 0.842535
deltaT = 0.00151496
Time = 0.139395

PIMPLE: iteration 1
smoothSolver:  Solving for alpha.water, Initial residual = 0.00336792, Final residual = 8.39184e-10, No Iterations 3
Phase-1 volume fraction = 0.130194  Min(alpha.water) = -2.06768e-16  Max(alpha.water) = 1
MULES: Correcting alpha.water
MULES: Correcting alpha.water
Phase-1 volume fraction = 0.130194  Min(alpha.water) = -8.25567e-12  Max(alpha.water) = 1
DICPCG:  Solving for p_rgh, Initial residual = 0.0199786, Final residual = 0.00057734, No Iterations 1
time step continuity errors : sum local = 0.00026551, global = 3.79138e-09, cumulative = 0.000367752
DICPCG:  Solving for p_rgh, Initial residual = 0.000676442, Final residual = 2.22817e-05, No Iterations 14
time step continuity errors : sum local = 1.0114e-05, global = 1.00699e-06, cumulative = 0.000368759
DICPCG:  Solving for p_rgh, Initial residual = 9.31135e-05, Final residual = 8.9287e-08, No Iterations 48
time step continuity errors : sum local = 4.10904e-08, global = -4.13229e-10, cumulative = 0.000368758
ExecutionTime = 0.58 s  ClockTime = 0 s

Courant Number mean: 0.0756355 max: 0.858776
Interface Courant Number mean: 0.00691221 max: 0.858776
deltaT = 0.00151496
Time = 0.14091

PIMPLE: iteration 1
smoothSolver:  Solving for alpha.water, Initial residual = 0.00340062, Final residual = 8.50042e-10, No Iterations 3
Phase-1 volume fraction = 0.130194  Min(alpha.water) = -1.91211e-16  Max(alpha.water) = 1
MULES: Correcting alpha.water
MULES: Correcting alpha.water
Phase-1 volume fraction = 0.130194  Min(alpha.water) = -1.44054e-11  Max(alpha.water) = 1
DICPCG:  Solving for p_rgh, Initial residual = 0.0197521, Final residual = 0.000567702, No Iterations 1
time step continuity errors : sum local = 0.000267881, global = -1.41319e-08, cumulative = 0.000368744
DICPCG:  Solving for p_rgh, Initial residual = 0.000651023, Final residual = 2.09355e-05, No Iterations 14
time step continuity errors : sum local = 9.75525e-06, global = 9.03321e-07, cumulative = 0.000369647
DICPCG:  Solving for p_rgh, Initial residual = 8.93712e-05, Final residual = 8.99119e-08, No Iterations 34
time step continuity errors : sum local = 4.23974e-08, global = -1.03488e-08, cumulative = 0.000369637
ExecutionTime = 0.59 s  ClockTime = 0 s

Courant Number mean: 0.0760926 max: 0.860452
Interface Courant Number mean: 0.00704824 max: 0.860452
deltaT = 0.00151496
Time = 0.142425

PIMPLE: iteration 1
smoothSolver:  Solving for alpha.water, Initial residual = 0.00349851, Final residual = 8.57574e-10, No Iterations 3
Phase-1 volume fraction = 0.130194  Min(alpha.water) = -1.80853e-16  Max(alpha.water) = 1
MULES: Correcting alpha.water
MULES: Correcting alpha.water
Phase-1 volume fraction = 0.130194  Min(alpha.water) = -1.54382e-11  Max(alpha.water) = 1
DICPCG:  Solving for p_rgh, Initial residual = 0.0223668, Final residual = 0.000477361, No Iterations 1
time step continuity errors : sum local = 0.000239379, global = -2.61693e-08, cumulative = 0.000369611
DICPCG:  Solving for p_rgh, Initial residual = 0.00055657, Final residual = 2.06745e-05, No Iterations 14
time step continuity errors : sum local = 1.01997e-05, global = 7.58994e-07, cumulative = 0.00037037
DICPCG:  Solving for p_rgh, Initial residual = 8.83882e-05, Final residual = 9.2217e-08, No Iterations 45
time step continuity errors : sum local = 4.61745e-08, global = -4.99033e-10, cumulative = 0.000370369
ExecutionTime = 0.6 s  ClockTime = 0 s

Courant Number mean: 0.0764981 max: 0.847993
Interface Courant Number mean: 0.00716366 max: 0.847993
deltaT = 0.00151496
Time = 0.14394

PIMPLE: iteration 1
smoothSolver:  Solving for alpha.water, Initial residual = 0.00354152, Final residual = 8.55952e-10, No Iterations 3
Phase-1 volume fraction = 0.130194  Min(alpha.water) = -1.68617e-16  Max(alpha.water) = 1
MULES: Correcting alpha.water
MULES: Correcting alpha.water
Phase-1 volume fraction = 0.130194  Min(alpha.water) = -1.97098e-08  Max(alpha.water) = 1
DICPCG:  Solving for p_rgh, Initial residual = 0.0215819, Final residual = 0.000469173, No Iterations 1
time step continuity errors : sum local = 0.000237658, global = 1.92409e-09, cumulative = 0.000370371
DICPCG:  Solving for p_rgh, Initial residual = 0.000555644, Final residual = 1.85543e-05, No Iterations 14
time step continuity errors : sum local = 9.24545e-06, global = 6.52138e-07, cumulative = 0.000371023
DICPCG:  Solving for p_rgh, Initial residual = 8.33211e-05, Final residual = 7.56118e-08, No Iterations 48
time step continuity errors : sum local = 3.81439e-08, global = 1.71927e-10, cumulative = 0.000371024
ExecutionTime = 0.6 s  ClockTime = 0 s

Courant Number mean: 0.0770167 max: 0.848473
Interface Courant Number mean: 0.00808032 max: 0.848473
deltaT = 0.00151496
Time = 0.145455

PIMPLE: iteration 1
smoothSolver:  Solving for alpha.water, Initial residual = 0.00357582, Final residual = 8.56216e-10, No Iterations 3
Phase-1 volume fraction = 0.130194  Min(alpha.water) = -1.54257e-16  Max(alpha.water) = 1
MULES: Correcting alpha.water
MULES: Correcting alpha.water
Phase-1 volume fraction = 0.130194  Min(alpha.water) = -3.5514e-09  Max(alpha.water) = 1
DICPCG:  Solving for p_rgh, Initial residual = 0.0198473, Final residual = 0.000472413, No Iterations 1
time step continuity errors : sum local = 0.000237278, global = -2.94533e-09, cumulative = 0.000371021
DICPCG:  Solving for p_rgh, Initial residual = 0.000558547, Final residual = 2.63091e-05, No Iterations 13
time step continuity errors : sum local = 1.30096e-05, global = 7.92626e-07, cumulative = 0.000371813
DICPCG:  Solving for p_rgh, Initial residual = 8.89361e-05, Final residual = 7.47872e-08, No Iterations 47
time step continuity errors : sum local = 3.73292e-08, global = -2.23406e-09, cumulative = 0.000371811
ExecutionTime = 0.62 s  ClockTime = 1 s

Courant Number mean: 0.0774887 max: 0.84091
Interface Courant Number mean: 0.00751598 max: 0.84091
deltaT = 0.00151496
Time = 0.14697

PIMPLE: iteration 1
smoothSolver:  Solving for alpha.water, Initial residual = 0.00359111, Final residual = 8.69669e-10, No Iterations 3
Phase-1 volume fraction = 0.130194  Min(alpha.water) = -1.39134e-16  Max(alpha.water) = 1
MULES: Correcting alpha.water
MULES: Correcting alpha.water
Phase-1 volume fraction = 0.130194  Min(alpha.water) = -5.67719e-10  Max(alpha.water) = 1
DICPCG:  Solving for p_rgh, Initial residual = 0.0197461, Final residual = 0.0005146, No Iterations 1
time step continuity errors : sum local = 0.000256538, global = -1.05618e-08, cumulative = 0.0003718
DICPCG:  Solving for p_rgh, Initial residual = 0.000598317, Final residual = 2.06635e-05, No Iterations 14
time step continuity errors : sum local = 1.01533e-05, global = 1.00474e-06, cumulative = 0.000372805
DICPCG:  Solving for p_rgh, Initial residual = 8.71498e-05, Final residual = 9.83568e-08, No Iterations 43
time step continuity errors : sum local = 4.89342e-08, global = -5.69722e-10, cumulative = 0.000372805
ExecutionTime = 0.63 s  ClockTime = 1 s

Courant Number mean: 0.0777989 max: 0.822714
Interface Courant Number mean: 0.0074572 max: 0.822714
deltaT = 0.00151496
Time = 0.148485

PIMPLE: iteration 1
smoothSolver:  Solving for alpha.water, Initial residual = 0.00363163, Final residual = 8.78864e-10, No Iterations 3
Phase-1 volume fraction = 0.130194  Min(alpha.water) = -1.2356e-16  Max(alpha.water) = 1
MULES: Correcting alpha.water
MULES: Correcting alpha.water
Phase-1 volume fraction = 0.130194  Min(alpha.water) = -6.24756e-10  Max(alpha.water) = 1
DICPCG:  Solving for p_rgh, Initial residual = 0.0186563, Final residual = 0.000499739, No Iterations 1
time step continuity errors : sum local = 0.000248763, global = -8.39676e-09, cumulative = 0.000372796
DICPCG:  Solving for p_rgh, Initial residual = 0.000589846, Final residual = 2.02855e-05, No Iterations 14
time step continuity errors : sum local = 9.95761e-06, global = 8.19897e-07, cumulative = 0.000373616
DICPCG:  Solving for p_rgh, Initial residual = 8.43465e-05, Final residual = 9.69771e-08, No Iterations 47
time step continuity errors : sum local = 4.81752e-08, global = -3.3435e-09, cumulative = 0.000373613
ExecutionTime = 0.63 s  ClockTime = 1 s

Courant Number mean: 0.0780485 max: 0.820027
Interface Courant Number mean: 0.00764671 max: 0.820027
deltaT = 0.00151496
Time = 0.15

PIMPLE: iteration 1
smoothSolver:  Solving for alpha.water, Initial residual = 0.00368834, Final residual = 8.93413e-10, No Iterations 3
Phase-1 volume fraction = 0.130194  Min(alpha.water) = -1.0732e-16  Max(alpha.water) = 1
MULES: Correcting alpha.water
MULES: Correcting alpha.water
Phase-1 volume fraction = 0.130194  Min(alpha.water) = -4.99384e-10  Max(alpha.water) = 1
DICPCG:  Solving for p_rgh, Initial residual = 0.017239, Final residual = 0.00051252, No Iterations 1
time step continuity errors : sum local = 0.000254609, global = -1.13932e-08, cumulative = 0.000373601
DICPCG:  Solving for p_rgh, Initial residual = 0.000593281, Final residual = 2.87343e-05, No Iterations 9
time step continuity errors : sum local = 1.40986e-05, global = 7.16044e-08, cumulative = 0.000373673
DICPCG:  Solving for p_rgh, Initial residual = 8.8579e-05, Final residual = 9.91554e-08, No Iterations 45
time step continuity errors : sum local = 4.90188e-08, global = 2.28236e-09, cumulative = 0.000373675
ExecutionTime = 0.66 s  ClockTime = 1 s

Courant Number mean: 0.0782884 max: 0.802347
Interface Courant Number mean: 0.00800654 max: 0.802347
deltaT = 0.00166667
Time = 0.151667

PIMPLE: iteration 1
smoothSolver:  Solving for alpha.water, Initial residual = 0.00413627, Final residual = 1.6206e-09, No Iterations 3
Phase-1 volume fraction = 0.130194  Min(alpha.water) = -8.67229e-17  Max(alpha.water) = 1
MULES: Correcting alpha.water
MULES: Correcting alpha.water
Phase-1 volume fraction = 0.130194  Min(alpha.water) = -7.61239e-10  Max(alpha.water) = 1
DICPCG:  Solving for p_rgh, Initial residual = 0.0188057, Final residual = 0.000570081, No Iterations 1
time step continuity errors : sum local = 0.000343106, global = 6.64081e-09, cumulative = 0.000373682
DICPCG:  Solving for p_rgh, Initial residual = 0.000659644, Final residual = 2.93943e-05, No Iterations 9
time step continuity errors : sum local = 1.7441e-05, global = 5.57101e-08, cumulative = 0.000373738
DICPCG:  Solving for p_rgh, Initial residual = 0.000104336, Final residual = 9.96674e-08, No Iterations 47
time step continuity errors : sum local = 5.95343e-08, global = 9.67155e-10, cumulative = 0.000373739
ExecutionTime = 0.67 s  ClockTime = 1 s

Courant Number mean: 0.0864341 max: 0.88063
Interface Courant Number mean: 0.00935484 max: 0.88063
deltaT = 0.00179012
Time = 0.153457

PIMPLE: iteration 1
smoothSolver:  Solving for alpha.water, Initial residual = 0.00450447, Final residual = 2.52156e-09, No Iterations 3
Phase-1 volume fraction = 0.130194  Min(alpha.water) = -6.61768e-17  Max(alpha.water) = 1
MULES: Correcting alpha.water
MULES: Correcting alpha.water
Phase-1 volume fraction = 0.130194  Min(alpha.water) = -9.98473e-10  Max(alpha.water) = 1
DICPCG:  Solving for p_rgh, Initial residual = 0.0177541, Final residual = 0.000638172, No Iterations 1
time step continuity errors : sum local = 0.000438627, global = -1.07474e-09, cumulative = 0.000373737
DICPCG:  Solving for p_rgh, Initial residual = 0.000737051, Final residual = 3.24434e-05, No Iterations 8
time step continuity errors : sum local = 2.20248e-05, global = -1.82197e-09, cumulative = 0.000373736
DICPCG:  Solving for p_rgh, Initial residual = 0.000119452, Final residual = 7.98415e-08, No Iterations 45
time step continuity errors : sum local = 5.44608e-08, global = -5.96441e-09, cumulative = 0.00037373
ExecutionTime = 0.67 s  ClockTime = 1 s

Courant Number mean: 0.0931939 max: 0.947654
Interface Courant Number mean: 0.00963628 max: 0.947654
deltaT = 0.00186173
Time = 0.155319

PIMPLE: iteration 1
smoothSolver:  Solving for alpha.water, Initial residual = 0.00475252, Final residual = 3.19899e-09, No Iterations 3
Phase-1 volume fraction = 0.130194  Min(alpha.water) = -6.32829e-17  Max(alpha.water) = 1
MULES: Correcting alpha.water
MULES: Correcting alpha.water
Phase-1 volume fraction = 0.130194  Min(alpha.water) = -6.94244e-10  Max(alpha.water) = 1
DICPCG:  Solving for p_rgh, Initial residual = 0.0179254, Final residual = 0.000603124, No Iterations 1
time step continuity errors : sum local = 0.000452029, global = -1.14179e-08, cumulative = 0.000373718
DICPCG:  Solving for p_rgh, Initial residual = 0.000707159, Final residual = 2.96735e-05, No Iterations 9
time step continuity errors : sum local = 2.19568e-05, global = 4.08767e-08, cumulative = 0.000373759
DICPCG:  Solving for p_rgh, Initial residual = 0.000116801, Final residual = 8.05902e-08, No Iterations 49
time step continuity errors : sum local = 5.98983e-08, global = -3.06086e-09, cumulative = 0.000373756
ExecutionTime = 0.68 s  ClockTime = 1 s

Courant Number mean: 0.097155 max: 0.970576
Interface Courant Number mean: 0.0102572 max: 0.970576
deltaT = 0.00186173
Time = 0.15718

PIMPLE: iteration 1
smoothSolver:  Solving for alpha.water, Initial residual = 0.0048288, Final residual = 3.20346e-09, No Iterations 3
Phase-1 volume fraction = 0.130194  Min(alpha.water) = -5.87041e-17  Max(alpha.water) = 1
MULES: Correcting alpha.water
MULES: Correcting alpha.water
Phase-1 volume fraction = 0.130194  Min(alpha.water) = -7.89113e-08  Max(alpha.water) = 1
DICPCG:  Solving for p_rgh, Initial residual = 0.017929, Final residual = 0.000601516, No Iterations 1
time step continuity errors : sum local = 0.000457054, global = 5.46343e-09, cumulative = 0.000373762
DICPCG:  Solving for p_rgh, Initial residual = 0.00070129, Final residual = 2.63898e-05, No Iterations 8
time step continuity errors : sum local = 1.98352e-05, global = -3.92203e-09, cumulative = 0.000373758
DICPCG:  Solving for p_rgh, Initial residual = 0.000113153, Final residual = 9.2538e-08, No Iterations 47
time step continuity errors : sum local = 6.98551e-08, global = -2.1025e-09, cumulative = 0.000373756
ExecutionTime = 0.69 s  ClockTime = 1 s

Courant Number mean: 0.0973986 max: 0.947866
Interface Courant Number mean: 0.0110317 max: 0.947866
deltaT = 0.00194635
Time = 0.159127

PIMPLE: iteration 1
smoothSolver:  Solving for alpha.water, Initial residual = 0.00514089, Final residual = 4.11741e-09, No Iterations 3
Phase-1 volume fraction = 0.130194  Min(alpha.water) = -5.26892e-17  Max(alpha.water) = 1
MULES: Correcting alpha.water
MULES: Correcting alpha.water
Phase-1 volume fraction = 0.130194  Min(alpha.water) = -1.48554e-06  Max(alpha.water) = 1
DICPCG:  Solving for p_rgh, Initial residual = 0.0206982, Final residual = 0.000585047, No Iterations 1
[...]
ExecutionTime = 4.8 s  ClockTime = 5 s

Courant Number mean: 0.161335 max: 0.985451
Interface Courant Number mean: 0.0351322 max: 0.648287
deltaT = 0.00277778
Time = 0.955556

PIMPLE: iteration 1
smoothSolver:  Solving for alpha.water, Initial residual = 0.00880719, Final residual = 1.11237e-09, No Iterations 4
Phase-1 volume fraction = 0.12735  Min(alpha.water) = -6.66878e-16  Max(alpha.water) = 1
MULES: Correcting alpha.water
MULES: Correcting alpha.water
Phase-1 volume fraction = 0.12735  Min(alpha.water) = -3.87333e-06  Max(alpha.water) = 1
DICPCG:  Solving for p_rgh, Initial residual = 0.0285576, Final residual = 0.00130769, No Iterations 1
time step continuity errors : sum local = 0.00127593, global = 3.00021e-09, cumulative = 0.00331826
DICPCG:  Solving for p_rgh, Initial residual = 0.00148446, Final residual = 6.98261e-05, No Iterations 5
time step continuity errors : sum local = 6.73984e-05, global = -2.53107e-08, cumulative = 0.00331823
DICPCG:  Solving for p_rgh, Initial residual = 0.0002402, Final residual = 8.64667e-08, No Iterations 36
time step continuity errors : sum local = 8.34872e-08, global = 1.66246e-08, cumulative = 0.00331825
ExecutionTime = 4.81 s  ClockTime = 5 s

Courant Number mean: 0.161834 max: 0.968056
Interface Courant Number mean: 0.0352003 max: 0.652585
deltaT = 0.00277778
Time = 0.958333

PIMPLE: iteration 1
smoothSolver:  Solving for alpha.water, Initial residual = 0.00881731, Final residual = 1.05372e-09, No Iterations 4
Phase-1 volume fraction = 0.12735  Min(alpha.water) = -6.56524e-16  Max(alpha.water) = 1
MULES: Correcting alpha.water
MULES: Correcting alpha.water
Phase-1 volume fraction = 0.12735  Min(alpha.water) = -4.54222e-06  Max(alpha.water) = 1
DICPCG:  Solving for p_rgh, Initial residual = 0.0305925, Final residual = 0.00139723, No Iterations 1
time step continuity errors : sum local = 0.00137196, global = 5.46522e-08, cumulative = 0.0033183
DICPCG:  Solving for p_rgh, Initial residual = 0.00157569, Final residual = 5.98359e-05, No Iterations 6
time step continuity errors : sum local = 5.80806e-05, global = 1.75056e-08, cumulative = 0.00331832
DICPCG:  Solving for p_rgh, Initial residual = 0.000248684, Final residual = 7.7434e-08, No Iterations 50
time step continuity errors : sum local = 7.5233e-08, global = 4.73205e-09, cumulative = 0.00331832
ExecutionTime = 4.81 s  ClockTime = 5 s

Courant Number mean: 0.162266 max: 0.959468
Interface Courant Number mean: 0.0356443 max: 0.655638
deltaT = 0.00277778
Time = 0.961111

PIMPLE: iteration 1
smoothSolver:  Solving for alpha.water, Initial residual = 0.00877398, Final residual = 9.44883e-10, No Iterations 4
Phase-1 volume fraction = 0.12735  Min(alpha.water) = -6.46162e-16  Max(alpha.water) = 1
MULES: Correcting alpha.water
MULES: Correcting alpha.water
Phase-1 volume fraction = 0.12735  Min(alpha.water) = -3.17438e-07  Max(alpha.water) = 1
DICPCG:  Solving for p_rgh, Initial residual = 0.0295468, Final residual = 0.000431831, No Iterations 2
time step continuity errors : sum local = 0.000411565, global = 1.52826e-09, cumulative = 0.00331833
DICPCG:  Solving for p_rgh, Initial residual = 0.000616537, Final residual = 2.73437e-05, No Iterations 7
time step continuity errors : sum local = 2.5623e-05, global = -6.54787e-08, cumulative = 0.00331826
DICPCG:  Solving for p_rgh, Initial residual = 0.00012551, Final residual = 5.66285e-08, No Iterations 46
time step continuity errors : sum local = 5.32652e-08, global = 5.69529e-09, cumulative = 0.00331827
ExecutionTime = 4.82 s  ClockTime = 5 s

Courant Number mean: 0.162761 max: 0.958734
Interface Courant Number mean: 0.0359665 max: 0.65863
deltaT = 0.00277778
Time = 0.963889

PIMPLE: iteration 1
smoothSolver:  Solving for alpha.water, Initial residual = 0.00884385, Final residual = 8.35613e-10, No Iterations 4
Phase-1 volume fraction = 0.12735  Min(alpha.water) = -6.358e-16  Max(alpha.water) = 1
MULES: Correcting alpha.water
MULES: Correcting alpha.water
Phase-1 volume fraction = 0.12735  Min(alpha.water) = -7.9372e-07  Max(alpha.water) = 1
DICPCG:  Solving for p_rgh, Initial residual = 0.0322663, Final residual = 0.00154699, No Iterations 1
time step continuity errors : sum local = 0.00145982, global = 3.03942e-08, cumulative = 0.0033183
DICPCG:  Solving for p_rgh, Initial residual = 0.0017794, Final residual = 8.14562e-05, No Iterations 6
time step continuity errors : sum local = 7.57233e-05, global = -1.01403e-08, cumulative = 0.00331829
DICPCG:  Solving for p_rgh, Initial residual = 0.000286061, Final residual = 8.51046e-08, No Iterations 50
time step continuity errors : sum local = 7.92538e-08, global = 4.66262e-09, cumulative = 0.00331829
ExecutionTime = 4.83 s  ClockTime = 5 s

Courant Number mean: 0.163411 max: 0.952025
Interface Courant Number mean: 0.0361479 max: 0.685424
deltaT = 0.00277778
Time = 0.966667

PIMPLE: iteration 1
smoothSolver:  Solving for alpha.water, Initial residual = 0.00894794, Final residual = 7.37674e-10, No Iterations 4
Phase-1 volume fraction = 0.12735  Min(alpha.water) = -6.25435e-16  Max(alpha.water) = 1
MULES: Correcting alpha.water
MULES: Correcting alpha.water
Phase-1 volume fraction = 0.12735  Min(alpha.water) = -1.65698e-06  Max(alpha.water) = 1
DICPCG:  Solving for p_rgh, Initial residual = 0.0322262, Final residual = 0.00154777, No Iterations 1
time step continuity errors : sum local = 0.00145713, global = 1.49888e-08, cumulative = 0.00331831
DICPCG:  Solving for p_rgh, Initial residual = 0.0017698, Final residual = 7.46666e-05, No Iterations 6
time step continuity errors : sum local = 6.93337e-05, global = 9.08478e-09, cumulative = 0.00331832
DICPCG:  Solving for p_rgh, Initial residual = 0.000284898, Final residual = 7.37937e-08, No Iterations 46
time step continuity errors : sum local = 6.86968e-08, global = -4.20637e-09, cumulative = 0.00331831
ExecutionTime = 4.85 s  ClockTime = 5 s

Courant Number mean: 0.164107 max: 0.939977
Interface Courant Number mean: 0.0366852 max: 0.691169
deltaT = 0.00277778
Time = 0.969444

PIMPLE: iteration 1
smoothSolver:  Solving for alpha.water, Initial residual = 0.00908639, Final residual = 6.14549e-10, No Iterations 4
Phase-1 volume fraction = 0.12735  Min(alpha.water) = -6.15076e-16  Max(alpha.water) = 1
MULES: Correcting alpha.water
MULES: Correcting alpha.water
Phase-1 volume fraction = 0.12735  Min(alpha.water) = -2.29597e-07  Max(alpha.water) = 1
DICPCG:  Solving for p_rgh, Initial residual = 0.0297945, Final residual = 0.000448075, No Iterations 2
time step continuity errors : sum local = 0.000421017, global = -1.24024e-08, cumulative = 0.0033183
DICPCG:  Solving for p_rgh, Initial residual = 0.000625058, Final residual = 3.08856e-05, No Iterations 9
time step continuity errors : sum local = 2.86597e-05, global = -2.11732e-07, cumulative = 0.00331809
DICPCG:  Solving for p_rgh, Initial residual = 0.000129434, Final residual = 9.35412e-08, No Iterations 47
time step continuity errors : sum local = 8.70701e-08, global = 4.68506e-09, cumulative = 0.00331809
ExecutionTime = 4.86 s  ClockTime = 5 s

Courant Number mean: 0.164784 max: 0.923899
Interface Courant Number mean: 0.0376021 max: 0.687984
deltaT = 0.00277778
Time = 0.972222

PIMPLE: iteration 1
smoothSolver:  Solving for alpha.water, Initial residual = 0.00915645, Final residual = 4.62189e-10, No Iterations 4
Phase-1 volume fraction = 0.12735  Min(alpha.water) = -6.04731e-16  Max(alpha.water) = 1
MULES: Correcting alpha.water
MULES: Correcting alpha.water
Phase-1 volume fraction = 0.12735  Min(alpha.water) = -1.80316e-07  Max(alpha.water) = 1
DICPCG:  Solving for p_rgh, Initial residual = 0.0286267, Final residual = 0.000461196, No Iterations 2
time step continuity errors : sum local = 0.000431872, global = 3.8193e-08, cumulative = 0.00331813
DICPCG:  Solving for p_rgh, Initial residual = 0.000645619, Final residual = 2.11788e-05, No Iterations 9
time step continuity errors : sum local = 1.9505e-05, global = -3.31459e-07, cumulative = 0.0033178
DICPCG:  Solving for p_rgh, Initial residual = 0.00012697, Final residual = 8.37035e-08, No Iterations 43
time step continuity errors : sum local = 7.74816e-08, global = -4.53239e-09, cumulative = 0.00331779
ExecutionTime = 4.87 s  ClockTime = 5 s

Courant Number mean: 0.165356 max: 0.910545
Interface Courant Number mean: 0.0388027 max: 0.675883
deltaT = 0.00277778
Time = 0.975

PIMPLE: iteration 1
smoothSolver:  Solving for alpha.water, Initial residual = 0.00909257, Final residual = 3.52142e-10, No Iterations 4
Phase-1 volume fraction = 0.12735  Min(alpha.water) = -5.94412e-16  Max(alpha.water) = 1
MULES: Correcting alpha.water
MULES: Correcting alpha.water
Phase-1 volume fraction = 0.12735  Min(alpha.water) = -2.19905e-07  Max(alpha.water) = 1
DICPCG:  Solving for p_rgh, Initial residual = 0.0301082, Final residual = 0.00148785, No Iterations 1
time step continuity errors : sum local = 0.00137771, global = 1.94939e-08, cumulative = 0.00331781
DICPCG:  Solving for p_rgh, Initial residual = 0.00170794, Final residual = 7.59405e-05, No Iterations 7
time step continuity errors : sum local = 6.92925e-05, global = -1.58752e-07, cumulative = 0.00331765
DICPCG:  Solving for p_rgh, Initial residual = 0.000275544, Final residual = 7.77237e-08, No Iterations 47
time step continuity errors : sum local = 7.11986e-08, global = 2.35531e-10, cumulative = 0.00331766
ExecutionTime = 4.88 s  ClockTime = 5 s

Courant Number mean: 0.165815 max: 0.907578
Interface Courant Number mean: 0.0400801 max: 0.867332
deltaT = 0.00277778
Time = 0.977778

PIMPLE: iteration 1
smoothSolver:  Solving for alpha.water, Initial residual = 0.00907904, Final residual = 3.63873e-10, No Iterations 4
Phase-1 volume fraction = 0.12735  Min(alpha.water) = -5.84126e-16  Max(alpha.water) = 1
MULES: Correcting alpha.water
MULES: Correcting alpha.water
Phase-1 volume fraction = 0.12735  Min(alpha.water) = -1.10647e-06  Max(alpha.water) = 1
DICPCG:  Solving for p_rgh, Initial residual = 0.0303956, Final residual = 0.00146873, No Iterations 1
time step continuity errors : sum local = 0.00135602, global = 1.30172e-08, cumulative = 0.00331767
DICPCG:  Solving for p_rgh, Initial residual = 0.0016966, Final residual = 7.3619e-05, No Iterations 6
time step continuity errors : sum local = 6.70383e-05, global = -1.68378e-08, cumulative = 0.00331765
DICPCG:  Solving for p_rgh, Initial residual = 0.000284553, Final residual = 7.64662e-08, No Iterations 47
time step continuity errors : sum local = 6.98918e-08, global = 2.58287e-09, cumulative = 0.00331765
ExecutionTime = 4.88 s  ClockTime = 5 s

Courant Number mean: 0.166221 max: 0.900749
Interface Courant Number mean: 0.0400435 max: 0.855694
deltaT = 0.00277778
Time = 0.980556

PIMPLE: iteration 1
smoothSolver:  Solving for alpha.water, Initial residual = 0.00909316, Final residual = 4.55392e-10, No Iterations 4
Phase-1 volume fraction = 0.12735  Min(alpha.water) = -5.73876e-16  Max(alpha.water) = 1
MULES: Correcting alpha.water
MULES: Correcting alpha.water
Phase-1 volume fraction = 0.12735  Min(alpha.water) = -5.96774e-07  Max(alpha.water) = 1
DICPCG:  Solving for p_rgh, Initial residual = 0.0276678, Final residual = 0.000419032, No Iterations 2
time step continuity errors : sum local = 0.000389184, global = 1.1682e-08, cumulative = 0.00331767
DICPCG:  Solving for p_rgh, Initial residual = 0.000623131, Final residual = 2.11218e-05, No Iterations 9
time step continuity errors : sum local = 1.936e-05, global = -5.54725e-07, cumulative = 0.00331711
DICPCG:  Solving for p_rgh, Initial residual = 0.000127737, Final residual = 8.96649e-08, No Iterations 45
time step continuity errors : sum local = 8.25953e-08, global = 1.3834e-08, cumulative = 0.00331712
ExecutionTime = 4.89 s  ClockTime = 5 s

Courant Number mean: 0.16664 max: 0.892522
Interface Courant Number mean: 0.040898 max: 0.821756
deltaT = 0.00277778
Time = 0.983333

PIMPLE: iteration 1
smoothSolver:  Solving for alpha.water, Initial residual = 0.00912339, Final residual = 5.86566e-10, No Iterations 4
Phase-1 volume fraction = 0.12735  Min(alpha.water) = -5.63671e-16  Max(alpha.water) = 1
MULES: Correcting alpha.water
MULES: Correcting alpha.water
Phase-1 volume fraction = 0.12735  Min(alpha.water) = -7.12835e-07  Max(alpha.water) = 1
DICPCG:  Solving for p_rgh, Initial residual = 0.0287641, Final residual = 0.000441754, No Iterations 2
time step continuity errors : sum local = 0.000412605, global = 6.43394e-08, cumulative = 0.00331719
DICPCG:  Solving for p_rgh, Initial residual = 0.000648561, Final residual = 2.8834e-05, No Iterations 9
time step continuity errors : sum local = 2.64746e-05, global = -8.41134e-07, cumulative = 0.00331635
DICPCG:  Solving for p_rgh, Initial residual = 0.000138375, Final residual = 6.83993e-08, No Iterations 33
time step continuity errors : sum local = 6.32596e-08, global = 1.60739e-08, cumulative = 0.00331636
ExecutionTime = 4.9 s  ClockTime = 5 s

Courant Number mean: 0.167119 max: 0.881765
Interface Courant Number mean: 0.0416744 max: 0.770769
deltaT = 0.00277778
Time = 0.986111

PIMPLE: iteration 1
smoothSolver:  Solving for alpha.water, Initial residual = 0.00918688, Final residual = 7.60305e-10, No Iterations 4
Phase-1 volume fraction = 0.12735  Min(alpha.water) = -5.53513e-16  Max(alpha.water) = 1
MULES: Correcting alpha.water
MULES: Correcting alpha.water
Phase-1 volume fraction = 0.12735  Min(alpha.water) = -7.4503e-06  Max(alpha.water) = 1
DICPCG:  Solving for p_rgh, Initial residual = 0.0295314, Final residual = 0.00044252, No Iterations 2
time step continuity errors : sum local = 0.000407933, global = 6.9484e-08, cumulative = 0.00331643
DICPCG:  Solving for p_rgh, Initial residual = 0.000656285, Final residual = 2.42078e-05, No Iterations 9
time step continuity errors : sum local = 2.20007e-05, global = -1.03347e-06, cumulative = 0.0033154
DICPCG:  Solving for p_rgh, Initial residual = 0.000139386, Final residual = 9.20724e-08, No Iterations 42
time step continuity errors : sum local = 8.42885e-08, global = 8.46556e-10, cumulative = 0.0033154
ExecutionTime = 4.91 s  ClockTime = 5 s

Courant Number mean: 0.167483 max: 0.874536
Interface Courant Number mean: 0.041204 max: 0.824969
deltaT = 0.00277778
Time = 0.988889

PIMPLE: iteration 1
smoothSolver:  Solving for alpha.water, Initial residual = 0.00921396, Final residual = 9.91128e-10, No Iterations 4
Phase-1 volume fraction = 0.12735  Min(alpha.water) = -5.43406e-16  Max(alpha.water) = 1
MULES: Correcting alpha.water
MULES: Correcting alpha.water
Phase-1 volume fraction = 0.12735  Min(alpha.water) = -1.82971e-05  Max(alpha.water) = 1
DICPCG:  Solving for p_rgh, Initial residual = 0.0290706, Final residual = 0.000438146, No Iterations 2
time step continuity errors : sum local = 0.000405494, global = 3.38333e-08, cumulative = 0.00331543
DICPCG:  Solving for p_rgh, Initial residual = 0.00065049, Final residual = 2.90238e-05, No Iterations 10
time step continuity errors : sum local = 2.651e-05, global = -1.47565e-06, cumulative = 0.00331396
DICPCG:  Solving for p_rgh, Initial residual = 0.000147418, Final residual = 9.50924e-08, No Iterations 44
time step continuity errors : sum local = 8.76591e-08, global = -5.15931e-09, cumulative = 0.00331395
ExecutionTime = 4.92 s  ClockTime = 5 s

Courant Number mean: 0.167695 max: 0.886951
Interface Courant Number mean: 0.0404729 max: 0.886951
deltaT = 0.00277778
Time = 0.991667

PIMPLE: iteration 1
smoothSolver:  Solving for alpha.water, Initial residual = 0.00920268, Final residual = 1.22853e-09, No Iterations 4
Phase-1 volume fraction = 0.12735  Min(alpha.water) = -5.33363e-16  Max(alpha.water) = 1
MULES: Correcting alpha.water
MULES: Correcting alpha.water
Phase-1 volume fraction = 0.12735  Min(alpha.water) = -4.27249e-05  Max(alpha.water) = 1
DICPCG:  Solving for p_rgh, Initial residual = 0.0270211, Final residual = 0.00041721, No Iterations 2
time step continuity errors : sum local = 0.000390544, global = 3.99937e-08, cumulative = 0.00331399
DICPCG:  Solving for p_rgh, Initial residual = 0.000622783, Final residual = 2.3383e-05, No Iterations 9
time step continuity errors : sum local = 2.16385e-05, global = -1.26782e-06, cumulative = 0.00331273
DICPCG:  Solving for p_rgh, Initial residual = 0.000141761, Final residual = 8.68174e-08, No Iterations 42
time step continuity errors : sum local = 8.08778e-08, global = -5.34276e-09, cumulative = 0.00331272
ExecutionTime = 4.92 s  ClockTime = 5 s

Courant Number mean: 0.167887 max: 0.889587
Interface Courant Number mean: 0.0413111 max: 0.889587
deltaT = 0.00277778
Time = 0.994444

PIMPLE: iteration 1
smoothSolver:  Solving for alpha.water, Initial residual = 0.00913746, Final residual = 1.50131e-09, No Iterations 4
Phase-1 volume fraction = 0.12735  Min(alpha.water) = -5.23402e-16  Max(alpha.water) = 1
MULES: Correcting alpha.water
MULES: Correcting alpha.water
Phase-1 volume fraction = 0.12735  Min(alpha.water) = -9.78773e-05  Max(alpha.water) = 1
DICPCG:  Solving for p_rgh, Initial residual = 0.026452, Final residual = 0.00044559, No Iterations 2
time step continuity errors : sum local = 0.000419078, global = 5.99203e-08, cumulative = 0.00331278
DICPCG:  Solving for p_rgh, Initial residual = 0.000659681, Final residual = 2.61298e-05, No Iterations 10
time step continuity errors : sum local = 2.42362e-05, global = -1.06405e-06, cumulative = 0.00331172
DICPCG:  Solving for p_rgh, Initial residual = 0.000148763, Final residual = 8.1448e-08, No Iterations 41
time step continuity errors : sum local = 7.6229e-08, global = -9.63911e-10, cumulative = 0.00331172
ExecutionTime = 4.93 s  ClockTime = 5 s

Courant Number mean: 0.16808 max: 0.857963
Interface Courant Number mean: 0.0415866 max: 0.855766
deltaT = 0.00277778
Time = 0.997222

PIMPLE: iteration 1
smoothSolver:  Solving for alpha.water, Initial residual = 0.00906888, Final residual = 1.80113e-09, No Iterations 4
Phase-1 volume fraction = 0.12735  Min(alpha.water) = -5.13529e-16  Max(alpha.water) = 1
MULES: Correcting alpha.water
MULES: Correcting alpha.water
Phase-1 volume fraction = 0.12735  Min(alpha.water) = -9.70775e-05  Max(alpha.water) = 1
DICPCG:  Solving for p_rgh, Initial residual = 0.0243704, Final residual = 0.00044156, No Iterations 2
time step continuity errors : sum local = 0.000409182, global = 3.86656e-08, cumulative = 0.00331175
DICPCG:  Solving for p_rgh, Initial residual = 0.000651367, Final residual = 2.5797e-05, No Iterations 10
time step continuity errors : sum local = 2.36415e-05, global = -1.94146e-06, cumulative = 0.00330981
DICPCG:  Solving for p_rgh, Initial residual = 0.000149907, Final residual = 6.72785e-08, No Iterations 41
time step continuity errors : sum local = 6.21966e-08, global = -1.12714e-09, cumulative = 0.00330981
ExecutionTime = 4.94 s  ClockTime = 5 s

Courant Number mean: 0.168066 max: 0.846349
Interface Courant Number mean: 0.0414964 max: 0.802998
deltaT = 0.00277778
Time = 1

PIMPLE: iteration 1
smoothSolver:  Solving for alpha.water, Initial residual = 0.00896264, Final residual = 2.15756e-09, No Iterations 4
Phase-1 volume fraction = 0.12735  Min(alpha.water) = -5.03738e-16  Max(alpha.water) = 1
MULES: Correcting alpha.water
MULES: Correcting alpha.water
Phase-1 volume fraction = 0.12735  Min(alpha.water) = -0.000103583  Max(alpha.water) = 1
DICPCG:  Solving for p_rgh, Initial residual = 0.0247156, Final residual = 0.000430234, No Iterations 2
time step continuity errors : sum local = 0.000406061, global = 7.09114e-08, cumulative = 0.00330988
DICPCG:  Solving for p_rgh, Initial residual = 0.000627321, Final residual = 2.36432e-05, No Iterations 10
time step continuity errors : sum local = 2.21149e-05, global = -2.16188e-06, cumulative = 0.00330772
DICPCG:  Solving for p_rgh, Initial residual = 0.000147184, Final residual = 8.1571e-08, No Iterations 42
time step continuity errors : sum local = 7.71112e-08, global = -4.95959e-09, cumulative = 0.00330772
ExecutionTime = 4.97 s  ClockTime = 5 s

End

