
//   run_parallel_cfdemSolverIB_twoSpheresGlowinskiMPI_CFDDEM   //

/home/tsimur/CFDEM/CFDEMcoupling-PUBLIC-5.x/tutorials/cfdemSolverIB/twoSpheresGlowinskiMPI_1/CFD

/*---------------------------------------------------------------------------*\
| =========                 |                                                 |
| \\      /  F ield         | OpenFOAM: The Open Source CFD Toolbox           |
|  \\    /   O peration     | Version:  5.x                                   |
|   \\  /    A nd           | Web:      www.OpenFOAM.org                      |
|    \\/     M anipulation  |                                                 |
\*---------------------------------------------------------------------------*/
Build  : 5.x-538044ac05c4
Exec   : cfdemSolverIB -parallel
Date   : Jun 20 2019
Time   : 13:30:39
Host   : "tsimur"
PID    : 4964
I/O    : uncollated
Case   : /home/tsimur/CFDEM/CFDEMcoupling-PUBLIC-5.x/tutorials/cfdemSolverIB/twoSpheresGlowinskiMPI_1/CFD
nProcs : 4
Slaves : 
3
(
"tsimur.4965"
"tsimur.4966"
"tsimur.4967"
)

Pstream initialized with:
    floatTransfer      : 0
    nProcsSimpleSum    : 0
    commsType          : nonBlocking
    polling iterations : 0
sigFpe : Enabling floating point exception trapping (FOAM_SIGFPE).
fileModificationChecking : Monitoring run-time modified files using timeStampMaster (fileModificationSkew 10)
allowSystemOperations : Allowing user-supplied system call operations

// * * * * * * * * * * * * * * * * * * * * * * * * * * * * * * * * * * * * * //
Create time

Create mesh for time = 0

Selecting dynamicFvMesh dynamicRefineFvMesh

PISO: Operating solver in PISO mode

Reading field p

Reading physical velocity field U
Note: only if voidfraction at boundary is 1, U is superficial velocity!!!

Reading physical velocity field U
Note: only if voidfraction at boundary is 1, U is superficial velocity!!!


Creating dummy density field rho = 1

Reading field phiIB

Reading field phiIB

Reading/calculating face flux field phi

Selecting incompressible transport model Newtonian
Selecting turbulence model type laminar
Selecting laminar stress model Stokes
Reading field interFace


Reading g
Selecting locateModel engineIB
Selecting dataExchangeModel twoWayMPI
Starting up LIGGGHTS for first time execution
Executing input script '../DEM/in.liggghts_run'
LIGGGHTS (Version LIGGGHTS-PUBLIC 3.8.0, compiled 2018-11-28-21:57:47 by root, git commit 28301df8853491784b1d8b90533ea89b8c6af1e8)
log             ../DEM/log.liggghts
thermo_log      ../DEM/post/thermo.txt

atom_style      granular
atom_modify     map array
communicate     single vel yes

boundary        f f f
newton          off

units           si
processors      2 2 1

region          reg block 0. 1. 0. 1. 0. 4. units box
create_box      1 reg
Created orthogonal box = (0 0 0) to (1 1 4)
  2 by 2 by 1 MPI processor grid

neighbor        0.3 bin
neigh_modify    delay 0 binsize 0.01


# Material properties required for new pair styles

fix             m1 all property/global youngsModulus peratomtype 5.e7
fix             m2 all property/global poissonsRatio peratomtype 0.45
fix             m3 all property/global coefficientRestitution peratomtypepair 1 0.9
fix             m4 all property/global coefficientFriction peratomtypepair 1 0.5

# pair style
pair_style      gran model hertz tangential history #Hertzian without cohesion
pair_coeff      * *

# timestep, gravity
timestep        0.00003

fix             gravi all gravity 981 vector 0.0 0.0 -1.0

# walls
fix     xwalls1 all wall/gran model hertz tangential history primitive type 1 xplane 0.
fix     xwalls2 all wall/gran model hertz tangential history primitive type 1 xplane 1.
fix     ywalls1 all wall/gran model hertz tangential history primitive type 1 yplane 0.
fix     ywalls2 all wall/gran model hertz tangential history primitive type 1 yplane 1.
fix     zwalls1 all wall/gran model hertz tangential history primitive type 1 zplane 0.
fix     zwalls2 all wall/gran model hertz tangential history primitive type 1 zplane 4.

# cfd coupling
fix     cfd  all couple/cfd couple_every 10 mpi
couple_every as specified in LIGGGHTS is overriden by calling external program (../fix_cfd_coupling.cpp:114)
fix     cfd2 all couple/cfd/force


# create single partciles
create_atoms 1 single .5 .5 3.5  units box
Created 1 atoms
create_atoms 1 single .5 .5 3.16 units box
Created 1 atoms
set atom 1 diameter 0.167 density 1.5 vx 0 vy 0 vz 0
Setting atom values ...
  1 settings made for diameter
  1 settings made for density
  1 settings made for vx
  1 settings made for vy
  1 settings made for vz
set atom 2 diameter 0.167 density 1.5 vx 0 vy 0 vz 0
Setting atom values ...
  1 settings made for diameter
  1 settings made for density
  1 settings made for vx
  1 settings made for vy
  1 settings made for vz

variable        vx1 equal vx[1]
variable        vy1 equal vy[1]
variable        vz1 equal vz[1]
variable        vx2 equal vx[2]
variable        vy2 equal vy[2]
variable        vz2 equal vz[2]
variable        x1 equal x[1]
variable        y1 equal y[1]
variable        z1 equal z[1]
variable        x2 equal x[2]
variable        y2 equal y[2]
variable        z2 equal z[2]
variable        time equal step*dt

fix             extra1 all print 100 "${time} ${vx1} ${vy1} ${vz1}" file ../DEM/post/velocity_particle_1.txt title "%" screen no
fix             extra2 all print 100 "${time} ${vx2} ${vy2} ${vz2}" file ../DEM/post/velocity_particle_2.txt title "%" screen no
fix             extra3 all print 100 "${time} ${x1}  ${y1}  ${z1}"  file ../DEM/post/position_particle_1.txt title "%" screen no
fix             extra4 all print 100 "${time} ${x2}  ${y2}  ${z2}"  file ../DEM/post/position_particle_2.txt title "%" screen no


# apply nve integration to all particles that are inserted as single particles
fix             integr all nve/sphere #wenn das ausgeblendet, dann kein vel update

# screen output
compute         rke all erotate/sphere
thermo_style    custom step atoms ke c_rke vol
thermo          1000
thermo_modify   lost ignore norm no
compute_modify  thermo_temp dynamic yes
WARNING: Changing thermo_temp compute object. This object is deprecated and will be removed in the future. (../compute.cpp:161)

# insert the first particles so that dump is not empty
dump            dmp all custom 100 ../DEM/post/dump.liggghts_run id type x y z ix iy iz vx vy vz fx fy fz omegax omegay omegaz radius

#force : f_couple_cfd[0] f_couple_cfd[1] f_couple_cfd[2]
#node : f_couple_cfd[6]
#cell id : f_couple_cfd[7]

run             1
Setting up run at Thu Jun 20 13:30:39 2019

Memory usage per processor = 51.8087 Mbytes
    Step    Atoms         KinEng            rke         Volume 
       0        2              0              0              4 
       1        2  3.1682527e-06              0              4 
Loop time of 0.00869907 on 4 procs for 1 steps with 2 atoms, finish time Thu Jun 20 13:30:39 2019


Pair  time (%) = 2.714e-06 (0.0311987)
Neigh time (%) = 0 (0)
Comm  time (%) = 1.2272e-05 (0.141073)
Outpt time (%) = 0.00789694 (90.7791)
Other time (%) = 0.000787144 (9.04861)

Nlocal:    0.5 ave 2 max 0 min
Histogram: 3 0 0 0 0 0 0 0 0 1
Nghost:    1.5 ave 2 max 0 min
Histogram: 1 0 0 0 0 0 0 0 0 3
Neighs:    0.25 ave 1 max 0 min
Histogram: 3 0 0 0 0 0 0 0 0 1

Total # of neighbors = 1
Ave neighs/atom = 0.5
Neighbor list builds = 0
Dangerous builds = 0

Selecting IOModel basicIO
Selecting probeModel off
Selecting voidFractionModel IB


 W A R N I N G - do not use in combination with differentialRegion model! 


Selecting averagingModel dilute
Selecting clockModel off
start clock measurement at t >0.0006
Selecting smoothingModel off
Selecting meshMotionModel noMeshMotion

CFDEMcoupling version: cfdem-3.8.1
, compatible to LIGGGHTS version: 3.8.0
, compatible to OF version and build: 5.x-commit-538044ac05c4672b37c7df607dca1116fa88df88

You are currently using:
OF version: 5.x
OF build: 5.x-538044ac05c4
CFDEM build: 3.8.0-3-gb237264

cg is set to: 1
LIGGGHTS hosts 1 atom types.
If BC are important, please provide volScalarFields -imp/expParticleForces-
ignoring ddt(voidfraction)
Selecting forceModel ShirgaonkarIB
 Selecting forceSubModel ImEx
 reading switches:
  looking for treatForceExplicit ...  not found in dict, using default. treatForceExplicit = false
  looking for verbose ...  not found in dict, using default. verbose = false

Selecting forceModel ArchimedesIB
 Selecting forceSubModel ImEx
 reading switches:
  looking for treatForceExplicit ...  not found in dict, using default. treatForceExplicit = true

accounting for Archimedes only on DEM side!
Selecting liggghtsCommandModel runLiggghts ,provide dicts, numbered from 0 to n

Starting time loop

--> FOAM Warning : 
    From function void Foam::timeControl::read(const Foam::dictionary&)
    in file db/functionObjects/timeControl/timeControl.C at line 89
    Reading "/home/tsimur/CFDEM/CFDEMcoupling-PUBLIC-5.x/tutorials/cfdemSolverIB/twoSpheresGlowinskiMPI_1/CFD/system/controlDict.functions.probes" from line 62 to line 80
    Using deprecated 'outputControl'
    Please use 'writeControl' with 'writeInterval'
Time = 0.0003

Selected 0 cells for refinement out of 4000.
Selected 0 split points out of a possible 0.
Courant Number mean: 0 max: 0
- evolve()

 timeStepFraction() = 2
Starting up LIGGGHTS
Executing command: 'run 10    '
run 10    
Setting up run at Thu Jun 20 13:30:39 2019

Memory usage per processor = 51.8087 Mbytes
    Step    Atoms         KinEng            rke         Volume 
       1        2  3.1682527e-06              0              4 
CFD Coupling established at step 10
      11        2  0.00038335858              0              4 
Loop time of 0.000630099 on 4 procs for 10 steps with 2 atoms, finish time Thu Jun 20 13:30:39 2019


Pair  time (%) = 8.79325e-06 (1.39553)
Neigh time (%) = 0 (0)
Comm  time (%) = 0.000175333 (27.8263)
Outpt time (%) = 1.96318e-05 (3.11566)
Other time (%) = 0.000426341 (67.6625)

Nlocal:    0.5 ave 2 max 0 min
Histogram: 3 0 0 0 0 0 0 0 0 1
Nghost:    1.5 ave 2 max 0 min
Histogram: 1 0 0 0 0 0 0 0 0 3
Neighs:    0.25 ave 1 max 0 min
Histogram: 3 0 0 0 0 0 0 0 0 1

Total # of neighbors = 1
Ave neighs/atom = 0.5
Neighbor list builds = 0
Dangerous builds = 0
LIGGGHTS finished
Foam::cfdemCloudIB::reAllocArrays()
nr particles = 2
evolve done.
DILUPBiCG:  Solving for Ux, Initial residual = 1, Final residual = 8.93895e-08, No Iterations 2
DILUPBiCG:  Solving for Uy, Initial residual = 1, Final residual = 8.93895e-08, No Iterations 2
DILUPBiCG:  Solving for Uz, Initial residual = 1, Final residual = 4.4541e-08, No Iterations 2
DICPCG:  Solving for p, Initial residual = 0.608785, Final residual = 6.68097e-07, No Iterations 62
time step continuity errors : sum local = 1.17486e-15, global = -3.33067e-19, cumulative = -3.33067e-19
DICPCG:  Solving for p, Initial residual = 0.690667, Final residual = 7.55645e-07, No Iterations 59
time step continuity errors : sum local = 1.1867e-15, global = 3.66374e-19, cumulative = 3.33067e-20
DICPCG:  Solving for p, Initial residual = 0.730933, Final residual = 6.92438e-07, No Iterations 60
time step continuity errors : sum local = 1.11295e-15, global = -3.66374e-19, cumulative = -3.33067e-19
DICPCG:  Solving for p, Initial residual = 0.675723, Final residual = 8.49548e-07, No Iterations 59
time step continuity errors : sum local = 1.01024e-15, global = -9.99201e-20, cumulative = -4.32987e-19
particleCloud.calcVelocityCorrection() 
DICPCG:  Solving for phiIB, Initial residual = 1, Final residual = 9.29351e-07, No Iterations 47
ExecutionTime = 0.19 s  ClockTime = 0 s

Time = 0.0006

Selected 124 cells for refinement out of 4000.
Refined from 4000 to 4868 cells.
Selected 0 split points out of a possible 124.
Courant Number mean: 3.13168e-06 max: 0.00069752
- evolve()

 timeStepFraction() = 2
Starting up LIGGGHTS
Executing command: 'run 10    '
run 10    
Setting up run at Thu Jun 20 13:30:40 2019

Memory usage per processor = 51.8087 Mbytes
    Step    Atoms         KinEng            rke         Volume 
      11        2  0.00038335858              0              4 
CFD Coupling established at step 20
      21        2  0.00083081303              0              4 
Loop time of 0.000207229 on 4 procs for 10 steps with 2 atoms, finish time Thu Jun 20 13:30:40 2019


Pair  time (%) = 8.628e-06 (4.16351)
Neigh time (%) = 0 (0)
Comm  time (%) = 6.84185e-05 (33.0159)
Outpt time (%) = 1.77802e-05 (8.58)
Other time (%) = 0.000112402 (54.2406)

Nlocal:    0.5 ave 2 max 0 min
Histogram: 3 0 0 0 0 0 0 0 0 1
Nghost:    1.5 ave 2 max 0 min
Histogram: 1 0 0 0 0 0 0 0 0 3
Neighs:    0.25 ave 1 max 0 min
Histogram: 3 0 0 0 0 0 0 0 0 1

Total # of neighbors = 1
Ave neighs/atom = 0.5
Neighbor list builds = 0
Dangerous builds = 0
LIGGGHTS finished
nr particles = 2
evolve done.
DILUPBiCG:  Solving for Ux, Initial residual = 0.334417, Final residual = 2.85253e-08, No Iterations 2
DILUPBiCG:  Solving for Uy, Initial residual = 0.334417, Final residual = 2.85253e-08, No Iterations 2
DILUPBiCG:  Solving for Uz, Initial residual = 0.164322, Final residual = 7.60936e-08, No Iterations 2
DICPCG:  Solving for p, Initial residual = 0.765863, Final residual = 8.51102e-07, No Iterations 64
time step continuity errors : sum local = 4.33493e-12, global = -1.16584e-19, cumulative = -5.49571e-19
DICPCG:  Solving for p, Initial residual = 0.0500405, Final residual = 9.89825e-07, No Iterations 55
time step continuity errors : sum local = 3.00155e-12, global = -3.8303e-19, cumulative = -9.32601e-19
DICPCG:  Solving for p, Initial residual = 0.00197257, Final residual = 8.50566e-07, No Iterations 36
time step continuity errors : sum local = 2.72458e-12, global = -3.66391e-19, cumulative = -1.29899e-18
DICPCG:  Solving for p, Initial residual = 0.000120079, Final residual = 7.40627e-07, No Iterations 10
time step continuity errors : sum local = 2.39968e-12, global = -1.49873e-19, cumulative = -1.44887e-18
particleCloud.calcVelocityCorrection() 
DICPCG:  Solving for phiIB, Initial residual = 0.573966, Final residual = 5.49657e-07, No Iterations 49
ExecutionTime = 0.29 s  ClockTime = 1 s

Time = 0.0009

Selected 368 cells for refinement out of 4868.
Refined from 4868 to 7444 cells.
Selected 16 split points out of a possible 396.
Unrefined from 7444 to 7332 cells.
Courant Number mean: 1.84928e-05 max: 0.00534861
- evolve()

 timeStepFraction() = 2
Starting up LIGGGHTS
Executing command: 'run 10    '
run 10    
Setting up run at Thu Jun 20 13:30:40 2019

Memory usage per processor = 51.8087 Mbytes
    Step    Atoms         KinEng            rke         Volume 
      21        2  0.00083081303              0              4 
CFD Coupling established at step 30
      31        2    0.001042339              0              4 
Loop time of 0.00021284 on 4 procs for 10 steps with 2 atoms, finish time Thu Jun 20 13:30:40 2019


Pair  time (%) = 8.23825e-06 (3.87062)
Neigh time (%) = 0 (0)
Comm  time (%) = 6.767e-05 (31.7938)
Outpt time (%) = 1.83578e-05 (8.62512)
Other time (%) = 0.000118575 (55.7105)

Nlocal:    0.5 ave 2 max 0 min
Histogram: 3 0 0 0 0 0 0 0 0 1
Nghost:    1.5 ave 2 max 0 min
Histogram: 1 0 0 0 0 0 0 0 0 3
Neighs:    0.25 ave 1 max 0 min
Histogram: 3 0 0 0 0 0 0 0 0 1

Total # of neighbors = 1
Ave neighs/atom = 0.5
Neighbor list builds = 0
Dangerous builds = 0
LIGGGHTS finished
nr particles = 2
evolve done.
DILUPBiCG:  Solving for Ux, Initial residual = 0.276106, Final residual = 2.35002e-07, No Iterations 2
DILUPBiCG:  Solving for Uy, Initial residual = 0.276106, Final residual = 2.35002e-07, No Iterations 2
DILUPBiCG:  Solving for Uz, Initial residual = 0.0256583, Final residual = 1.50446e-07, No Iterations 2
DICPCG:  Solving for p, Initial residual = 0.852825, Final residual = 7.84987e-07, No Iterations 70
time step continuity errors : sum local = 1.42444e-11, global = -1.42816e-19, cumulative = -1.59168e-18
DICPCG:  Solving for p, Initial residual = 0.112769, Final residual = 9.23611e-07, No Iterations 64
time step continuity errors : sum local = 6.15245e-12, global = -6.75795e-19, cumulative = -2.26748e-18
DICPCG:  Solving for p, Initial residual = 0.00624302, Final residual = 9.50853e-07, No Iterations 43
time step continuity errors : sum local = 8.71752e-12, global = 9.02869e-20, cumulative = -2.17719e-18
DICPCG:  Solving for p, Initial residual = 0.000526119, Final residual = 6.68631e-07, No Iterations 53
time step continuity errors : sum local = 4.23746e-12, global = 6.39803e-19, cumulative = -1.53739e-18
particleCloud.calcVelocityCorrection() 
DICPCG:  Solving for phiIB, Initial residual = 0.620332, Final residual = 9.2241e-07, No Iterations 52
ExecutionTime = 0.5 s  ClockTime = 1 s

Time = 0.0012

Selected 0 cells for refinement out of 7332.
Selected 144 split points out of a possible 380.
Unrefined from 7332 to 6324 cells.
Courant Number mean: 2.18032e-05 max: 0.00487998
- evolve()

 timeStepFraction() = 2
Starting up LIGGGHTS
Executing command: 'run 10    '
run 10    
Setting up run at Thu Jun 20 13:30:40 2019

Memory usage per processor = 51.8087 Mbytes
    Step    Atoms         KinEng            rke         Volume 
      31        2    0.001042339              0              4 
CFD Coupling established at step 40
      41        2   0.0010440444              0              4 
Loop time of 0.000204166 on 4 procs for 10 steps with 2 atoms, finish time Thu Jun 20 13:30:40 2019


Pair  time (%) = 7.88625e-06 (3.86266)
Neigh time (%) = 0 (0)
Comm  time (%) = 6.4343e-05 (31.515)
Outpt time (%) = 1.7344e-05 (8.49504)
Other time (%) = 0.000114593 (56.1273)

Nlocal:    0.5 ave 2 max 0 min
Histogram: 3 0 0 0 0 0 0 0 0 1
Nghost:    1.5 ave 2 max 0 min
Histogram: 1 0 0 0 0 0 0 0 0 3
Neighs:    0.25 ave 1 max 0 min
Histogram: 3 0 0 0 0 0 0 0 0 1

Total # of neighbors = 1
Ave neighs/atom = 0.5
Neighbor list builds = 0
Dangerous builds = 0
LIGGGHTS finished
nr particles = 2
evolve done.
DILUPBiCG:  Solving for Ux, Initial residual = 0.164242, Final residual = 3.25041e-07, No Iterations 2
DILUPBiCG:  Solving for Uy, Initial residual = 0.164242, Final residual = 3.25041e-07, No Iterations 2
DILUPBiCG:  Solving for Uz, Initial residual = 0.0128872, Final residual = 8.78279e-08, No Iterations 2
DICPCG:  Solving for p, Initial residual = 0.564446, Final residual = 8.24865e-07, No Iterations 69
time step continuity errors : sum local = 6.67822e-12, global = -4.96924e-19, cumulative = -2.03431e-18
DICPCG:  Solving for p, Initial residual = 0.12397, Final residual = 5.53623e-07, No Iterations 63
time step continuity errors : sum local = 2.62532e-12, global = 6.02174e-19, cumulative = -1.43214e-18
DICPCG:  Solving for p, Initial residual = 0.00592172, Final residual = 8.57572e-07, No Iterations 42
time step continuity errors : sum local = 4.95038e-12, global = -2.23647e-20, cumulative = -1.4545e-18
DICPCG:  Solving for p, Initial residual = 0.000504452, Final residual = 9.8871e-07, No Iterations 32
time step continuity errors : sum local = 5.60126e-12, global = 1.60814e-19, cumulative = -1.29369e-18
particleCloud.calcVelocityCorrection() 
DICPCG:  Solving for phiIB, Initial residual = 0.265758, Final residual = 7.22376e-07, No Iterations 52
ExecutionTime = 0.64 s  ClockTime = 1 s

Time = 0.0015

Selected 0 cells for refinement out of 6324.
Selected 8 split points out of a possible 272.
Unrefined from 6324 to 6268 cells.
Courant Number mean: 2.77472e-05 max: 0.00588432
- evolve()

 timeStepFraction() = 2
Starting up LIGGGHTS
Executing command: 'run 10    '
run 10    
Setting up run at Thu Jun 20 13:30:40 2019

Memory usage per processor = 51.8087 Mbytes
    Step    Atoms         KinEng            rke         Volume 
      41        2   0.0010440444              0              4 
CFD Coupling established at step 50
      51        2   0.0011026021              0              4 
Loop time of 0.000204759 on 4 procs for 10 steps with 2 atoms, finish time Thu Jun 20 13:30:40 2019


Pair  time (%) = 7.392e-06 (3.6101)
Neigh time (%) = 0 (0)
Comm  time (%) = 6.54495e-05 (31.9642)
Outpt time (%) = 1.70835e-05 (8.34322)
Other time (%) = 0.000114834 (56.0825)

Nlocal:    0.5 ave 2 max 0 min
Histogram: 3 0 0 0 0 0 0 0 0 1
Nghost:    1.5 ave 2 max 0 min
Histogram: 1 0 0 0 0 0 0 0 0 3
Neighs:    0.25 ave 1 max 0 min
Histogram: 3 0 0 0 0 0 0 0 0 1

Total # of neighbors = 1
Ave neighs/atom = 0.5
Neighbor list builds = 0
Dangerous builds = 0
LIGGGHTS finished
nr particles = 2
evolve done.
DILUPBiCG:  Solving for Ux, Initial residual = 0.0774715, Final residual = 1.49191e-07, No Iterations 2
DILUPBiCG:  Solving for Uy, Initial residual = 0.0774715, Final residual = 1.49191e-07, No Iterations 2
DILUPBiCG:  Solving for Uz, Initial residual = 0.00540482, Final residual = 3.28337e-08, No Iterations 2
DICPCG:  Solving for p, Initial residual = 0.683482, Final residual = 9.57455e-07, No Iterations 68
time step continuity errors : sum local = 4.3712e-12, global = 2.51468e-19, cumulative = -1.04222e-18
DICPCG:  Solving for p, Initial residual = 0.158635, Final residual = 7.97174e-07, No Iterations 63
time step continuity errors : sum local = 1.40978e-12, global = -1.31529e-19, cumulative = -1.17375e-18
DICPCG:  Solving for p, Initial residual = 0.00775272, Final residual = 7.50729e-07, No Iterations 43
time step continuity errors : sum local = 1.58721e-12, global = 3.26378e-19, cumulative = -8.4737e-19
DICPCG:  Solving for p, Initial residual = 0.000685611, Final residual = 8.69009e-07, No Iterations 35
time step continuity errors : sum local = 1.79952e-12, global = -1.14851e-19, cumulative = -9.62221e-19
particleCloud.calcVelocityCorrection() 
DICPCG:  Solving for phiIB, Initial residual = 0.232007, Final residual = 5.69114e-07, No Iterations 52
ExecutionTime = 0.78 s  ClockTime = 1 s

Time = 0.0018

Selected 0 cells for refinement out of 6268.
Selected 0 split points out of a possible 264.
Courant Number mean: 2.98648e-05 max: 0.00609245
- evolve()

 timeStepFraction() = 2
Starting up LIGGGHTS
Executing command: 'run 10    '
run 10    
Setting up run at Thu Jun 20 13:30:40 2019

Memory usage per processor = 52.648 Mbytes
    Step    Atoms         KinEng            rke         Volume 
      51        2   0.0011026021              0              4 
CFD Coupling established at step 60
      61        2   0.0013665062              0              4 
Loop time of 0.000206564 on 4 procs for 10 steps with 2 atoms, finish time Thu Jun 20 13:30:40 2019


Pair  time (%) = 6.819e-06 (3.30116)
Neigh time (%) = 0 (0)
Comm  time (%) = 2.151e-05 (10.4132)
Outpt time (%) = 4.66045e-05 (22.5618)
Other time (%) = 0.00013163 (63.7238)

Nlocal:    0.5 ave 2 max 0 min
Histogram: 3 0 0 0 0 0 0 0 0 1
Nghost:    1.5 ave 2 max 0 min
Histogram: 1 0 0 0 0 0 0 0 0 3
Neighs:    0.25 ave 1 max 0 min
Histogram: 3 0 0 0 0 0 0 0 0 1

Total # of neighbors = 1
Ave neighs/atom = 0.5
Neighbor list builds = 0
Dangerous builds = 0
LIGGGHTS finished
nr particles = 2
evolve done.
DILUPBiCG:  Solving for Ux, Initial residual = 0.0407574, Final residual = 1.24683e-07, No Iterations 2
DILUPBiCG:  Solving for Uy, Initial residual = 0.0407574, Final residual = 1.24683e-07, No Iterations 2
DILUPBiCG:  Solving for Uz, Initial residual = 0.00212806, Final residual = 6.22639e-06, No Iterations 1
DICPCG:  Solving for p, Initial residual = 0.590105, Final residual = 7.22456e-07, No Iterations 68
time step continuity errors : sum local = 1.99599e-12, global = 3.06478e-19, cumulative = -6.55743e-19
DICPCG:  Solving for p, Initial residual = 0.125614, Final residual = 9.06154e-07, No Iterations 63
time step continuity errors : sum local = 1.10831e-12, global = -6.82058e-20, cumulative = -7.23949e-19
DICPCG:  Solving for p, Initial residual = 0.00556593, Final residual = 8.96048e-07, No Iterations 42
time step continuity errors : sum local = 1.3002e-12, global = -5.09442e-19, cumulative = -1.23339e-18
DICPCG:  Solving for p, Initial residual = 0.000493712, Final residual = 9.35292e-07, No Iterations 18
time step continuity errors : sum local = 1.3421e-12, global = -5.9913e-20, cumulative = -1.2933e-18
particleCloud.calcVelocityCorrection() 
DICPCG:  Solving for phiIB, Initial residual = 0.14273, Final residual = 8.04357e-07, No Iterations 50
ExecutionTime = 0.84 s  ClockTime = 1 s

Time = 0.0021

Selected 0 cells for refinement out of 6268.
Selected 0 split points out of a possible 264.
Courant Number mean: 3.203e-05 max: 0.00645705
- evolve()

 timeStepFraction() = 2
Starting up LIGGGHTS
Executing command: 'run 10    '
run 10    
Setting up run at Thu Jun 20 13:30:40 2019

Memory usage per processor = 52.648 Mbytes
    Step    Atoms         KinEng            rke         Volume 
      61        2   0.0013665062              0              4 
CFD Coupling established at step 70
      71        2   0.0017310923              0              4 
Loop time of 0.00025012 on 4 procs for 10 steps with 2 atoms, finish time Thu Jun 20 13:30:40 2019


Pair  time (%) = 8.5705e-06 (3.42656)
Neigh time (%) = 0 (0)
Comm  time (%) = 7.347e-05 (29.3739)
Outpt time (%) = 1.62467e-05 (6.49559)
Other time (%) = 0.000151832 (60.7039)

Nlocal:    0.5 ave 1 max 0 min
Histogram: 2 0 0 0 0 0 0 0 0 2
Nghost:    1.5 ave 2 max 1 min
Histogram: 2 0 0 0 0 0 0 0 0 2
Neighs:    0.5 ave 1 max 0 min
Histogram: 2 0 0 0 0 0 0 0 0 2

Total # of neighbors = 2
Ave neighs/atom = 1
Neighbor list builds = 0
Dangerous builds = 0
LIGGGHTS finished
nr particles = 2
evolve done.
DILUPBiCG:  Solving for Ux, Initial residual = 0.0467523, Final residual = 1.48989e-07, No Iterations 2
DILUPBiCG:  Solving for Uy, Initial residual = 0.0467523, Final residual = 1.48989e-07, No Iterations 2
DILUPBiCG:  Solving for Uz, Initial residual = 0.00276302, Final residual = 8.3426e-06, No Iterations 1
DICPCG:  Solving for p, Initial residual = 0.547815, Final residual = 9.10856e-07, No Iterations 67
time step continuity errors : sum local = 2.39638e-12, global = -3.40463e-19, cumulative = -1.63377e-18
DICPCG:  Solving for p, Initial residual = 0.145234, Final residual = 8.40957e-07, No Iterations 63
time step continuity errors : sum local = 1.12848e-12, global = -8.98301e-19, cumulative = -2.53207e-18
DICPCG:  Solving for p, Initial residual = 0.00643669, Final residual = 7.40501e-07, No Iterations 43
time step continuity errors : sum local = 1.2094e-12, global = -2.15517e-19, cumulative = -2.74758e-18
DICPCG:  Solving for p, Initial residual = 0.000618367, Final residual = 6.71482e-07, No Iterations 35
time step continuity errors : sum local = 1.06659e-12, global = 5.09394e-20, cumulative = -2.69664e-18
particleCloud.calcVelocityCorrection() 
DICPCG:  Solving for phiIB, Initial residual = 0.090175, Final residual = 7.39652e-07, No Iterations 50
ExecutionTime = 0.91 s  ClockTime = 1 s

Time = 0.0024

Selected 0 cells for refinement out of 6268.
Selected 0 split points out of a possible 264.
Courant Number mean: 3.48095e-05 max: 0.00688244
- evolve()

 timeStepFraction() = 2
Starting up LIGGGHTS
Executing command: 'run 10    '
run 10    
Setting up run at Thu Jun 20 13:30:40 2019

Memory usage per processor = 52.648 Mbytes
    Step    Atoms         KinEng            rke         Volume 
      71        2   0.0017310923              0              4 
CFD Coupling established at step 80
      81        2   0.0021038949              0              4 
Loop time of 0.000341543 on 4 procs for 10 steps with 2 atoms, finish time Thu Jun 20 13:30:40 2019


Pair  time (%) = 1.2831e-05 (3.75677)
Neigh time (%) = 0 (0)
Comm  time (%) = 8.4849e-05 (24.8428)
Outpt time (%) = 1.96535e-05 (5.75433)
Other time (%) = 0.00022421 (65.6461)

Nlocal:    0.5 ave 1 max 0 min
Histogram: 2 0 0 0 0 0 0 0 0 2
Nghost:    1.5 ave 2 max 1 min
Histogram: 2 0 0 0 0 0 0 0 0 2
Neighs:    0.5 ave 1 max 0 min
Histogram: 2 0 0 0 0 0 0 0 0 2

Total # of neighbors = 2
Ave neighs/atom = 1
Neighbor list builds = 0
Dangerous builds = 0
LIGGGHTS finished
nr particles = 2
evolve done.
DILUPBiCG:  Solving for Ux, Initial residual = 0.0502707, Final residual = 1.58091e-07, No Iterations 2
DILUPBiCG:  Solving for Uy, Initial residual = 0.0502707, Final residual = 1.58091e-07, No Iterations 2
DILUPBiCG:  Solving for Uz, Initial residual = 0.00295856, Final residual = 8.93679e-06, No Iterations 1
DICPCG:  Solving for p, Initial residual = 0.516727, Final residual = 7.61867e-07, No Iterations 69
time step continuity errors : sum local = 2.2647e-12, global = 5.77333e-19, cumulative = -2.11931e-18
DICPCG:  Solving for p, Initial residual = 0.151487, Final residual = 8.40464e-07, No Iterations 63
time step continuity errors : sum local = 1.31996e-12, global = 3.85847e-19, cumulative = -1.73346e-18
DICPCG:  Solving for p, Initial residual = 0.00669115, Final residual = 7.60175e-07, No Iterations 43
time step continuity errors : sum local = 1.41829e-12, global = -3.13541e-19, cumulative = -2.04701e-18
DICPCG:  Solving for p, Initial residual = 0.000646092, Final residual = 8.44388e-07, No Iterations 34
time step continuity errors : sum local = 1.47313e-12, global = 4.69072e-19, cumulative = -1.57793e-18
particleCloud.calcVelocityCorrection() 
DICPCG:  Solving for phiIB, Initial residual = 0.0476913, Final residual = 6.5388e-07, No Iterations 47
ExecutionTime = 0.97 s  ClockTime = 1 s

Time = 0.0027

Selected 0 cells for refinement out of 6268.
Selected 0 split points out of a possible 264.
Courant Number mean: 3.83218e-05 max: 0.00748651
- evolve()

 timeStepFraction() = 2
Starting up LIGGGHTS
Executing command: 'run 10    '
run 10    
Setting up run at Thu Jun 20 13:30:40 2019

Memory usage per processor = 52.648 Mbytes
    Step    Atoms         KinEng            rke         Volume 
      81        2   0.0021038949              0              4 
CFD Coupling established at step 90
      91        2   0.0024776697              0              4 
Loop time of 0.000281197 on 4 procs for 10 steps with 2 atoms, finish time Thu Jun 20 13:30:40 2019


Pair  time (%) = 9.8245e-06 (3.49381)
Neigh time (%) = 0 (0)
Comm  time (%) = 0.000109107 (38.8008)
Outpt time (%) = 2.0583e-05 (7.31977)
Other time (%) = 0.000141683 (50.3856)

Nlocal:    0.5 ave 1 max 0 min
Histogram: 2 0 0 0 0 0 0 0 0 2
Nghost:    1.5 ave 2 max 1 min
Histogram: 2 0 0 0 0 0 0 0 0 2
Neighs:    0.5 ave 1 max 0 min
Histogram: 2 0 0 0 0 0 0 0 0 2

Total # of neighbors = 2
Ave neighs/atom = 1
Neighbor list builds = 0
Dangerous builds = 0
LIGGGHTS finished
nr particles = 2
evolve done.
DILUPBiCG:  Solving for Ux, Initial residual = 0.0479487, Final residual = 1.55178e-07, No Iterations 2
DILUPBiCG:  Solving for Uy, Initial residual = 0.0479487, Final residual = 1.55178e-07, No Iterations 2
DILUPBiCG:  Solving for Uz, Initial residual = 0.00268615, Final residual = 8.0738e-06, No Iterations 1
DICPCG:  Solving for p, Initial residual = 0.509783, Final residual = 7.92225e-07, No Iterations 69
time step continuity errors : sum local = 2.57024e-12, global = 2.78685e-19, cumulative = -1.29925e-18
DICPCG:  Solving for p, Initial residual = 0.151148, Final residual = 8.45627e-07, No Iterations 63
time step continuity errors : sum local = 1.3985e-12, global = -3.87405e-19, cumulative = -1.68665e-18
DICPCG:  Solving for p, Initial residual = 0.00668358, Final residual = 7.41516e-07, No Iterations 43
time step continuity errors : sum local = 1.4397e-12, global = -3.77225e-20, cumulative = -1.72438e-18
DICPCG:  Solving for p, Initial residual = 0.000633618, Final residual = 9.60638e-07, No Iterations 25
time step continuity errors : sum local = 1.75291e-12, global = 3.70215e-19, cumulative = -1.35416e-18
particleCloud.calcVelocityCorrection() 
DICPCG:  Solving for phiIB, Initial residual = 0.0362045, Final residual = 8.94392e-07, No Iterations 45
ExecutionTime = 1.04 s  ClockTime = 1 s

Time = 0.003

Selected 0 cells for refinement out of 6268.
Selected 0 split points out of a possible 264.
Courant Number mean: 4.21584e-05 max: 0.00822633
- evolve()

 timeStepFraction() = 2
Starting up LIGGGHTS
Executing command: 'run 10    '
run 10    
Setting up run at Thu Jun 20 13:30:40 2019

Memory usage per processor = 52.648 Mbytes
    Step    Atoms         KinEng            rke         Volume 
      91        2   0.0024776697              0              4 
CFD Coupling established at step 100
     101        2   0.0028728033              0              4 
Loop time of 0.000534327 on 4 procs for 10 steps with 2 atoms, finish time Thu Jun 20 13:30:40 2019


Pair  time (%) = 1.13318e-05 (2.12075)
Neigh time (%) = 0 (0)
Comm  time (%) = 4.35255e-05 (8.14586)
Outpt time (%) = 8.80742e-05 (16.4832)
Other time (%) = 0.000391395 (73.2502)

Nlocal:    0.5 ave 1 max 0 min
Histogram: 2 0 0 0 0 0 0 0 0 2
Nghost:    1.5 ave 2 max 1 min
Histogram: 2 0 0 0 0 0 0 0 0 2
Neighs:    0.5 ave 1 max 0 min
Histogram: 2 0 0 0 0 0 0 0 0 2

Total # of neighbors = 2
Ave neighs/atom = 1
Neighbor list builds = 0
Dangerous builds = 0
LIGGGHTS finished
nr particles = 2
evolve done.
DILUPBiCG:  Solving for Ux, Initial residual = 0.0437948, Final residual = 1.49216e-07, No Iterations 2
DILUPBiCG:  Solving for Uy, Initial residual = 0.0437948, Final residual = 1.49216e-07, No Iterations 2
DILUPBiCG:  Solving for Uz, Initial residual = 0.00243063, Final residual = 7.31123e-06, No Iterations 1
DICPCG:  Solving for p, Initial residual = 0.517605, Final residual = 7.49489e-07, No Iterations 69
time step continuity errors : sum local = 2.50769e-12, global = 5.05071e-19, cumulative = -8.4909e-19
DICPCG:  Solving for p, Initial residual = 0.148878, Final residual = 8.28253e-07, No Iterations 63
time step continuity errors : sum local = 1.3748e-12, global = 4.21752e-19, cumulative = -4.27338e-19
DICPCG:  Solving for p, Initial residual = 0.00660922, Final residual = 7.18224e-07, No Iterations 43
time step continuity errors : sum local = 1.40123e-12, global = 8.9639e-19, cumulative = 4.69052e-19
DICPCG:  Solving for p, Initial residual = 0.000617293, Final residual = 9.13873e-07, No Iterations 25
time step continuity errors : sum local = 1.68101e-12, global = 7.7974e-19, cumulative = 1.24879e-18
particleCloud.calcVelocityCorrection() 
DICPCG:  Solving for phiIB, Initial residual = 0.0325763, Final residual = 7.34828e-07, No Iterations 41
ExecutionTime = 1.17 s  ClockTime = 2 s

Time = 0.0033

Selected 0 cells for refinement out of 6268.
Selected 0 split points out of a possible 264.
Courant Number mean: 4.60681e-05 max: 0.00896481
- evolve()

 timeStepFraction() = 2
Starting up LIGGGHTS
Executing command: 'run 10    '
run 10    
Setting up run at Thu Jun 20 13:30:41 2019

Memory usage per processor = 53.8006 Mbytes
    Step    Atoms         KinEng            rke         Volume 
     101        2   0.0028728033              0              4 
CFD Coupling established at step 110
     111        2    0.003305448              0              4 
Loop time of 0.000303774 on 4 procs for 10 steps with 2 atoms, finish time Thu Jun 20 13:30:41 2019


Pair  time (%) = 1.08443e-05 (3.56985)
Neigh time (%) = 0 (0)
Comm  time (%) = 9.4208e-05 (31.0126)
Outpt time (%) = 2.09108e-05 (6.88367)
Other time (%) = 0.00017781 (58.5339)

Nlocal:    0.5 ave 1 max 0 min
Histogram: 2 0 0 0 0 0 0 0 0 2
Nghost:    1.5 ave 2 max 1 min
Histogram: 2 0 0 0 0 0 0 0 0 2
Neighs:    0.5 ave 1 max 0 min
Histogram: 2 0 0 0 0 0 0 0 0 2

Total # of neighbors = 2
Ave neighs/atom = 1
Neighbor list builds = 0
Dangerous builds = 0
LIGGGHTS finished
nr particles = 2
evolve done.
DILUPBiCG:  Solving for Ux, Initial residual = 0.0403433, Final residual = 1.43556e-07, No Iterations 2
DILUPBiCG:  Solving for Uy, Initial residual = 0.0403433, Final residual = 1.43556e-07, No Iterations 2
DILUPBiCG:  Solving for Uz, Initial residual = 0.00222041, Final residual = 6.67016e-06, No Iterations 1
DICPCG:  Solving for p, Initial residual = 0.525306, Final residual = 9.70391e-07, No Iterations 68
time step continuity errors : sum local = 3.30025e-12, global = 5.53449e-19, cumulative = 1.80224e-18
DICPCG:  Solving for p, Initial residual = 0.147752, Final residual = 8.1106e-07, No Iterations 63
time step continuity errors : sum local = 1.34453e-12, global = 4.45324e-19, cumulative = 2.24757e-18
DICPCG:  Solving for p, Initial residual = 0.00656268, Final residual = 7.01081e-07, No Iterations 43
time step continuity errors : sum local = 1.36318e-12, global = 8.11642e-19, cumulative = 3.05921e-18
DICPCG:  Solving for p, Initial residual = 0.000606865, Final residual = 9.66902e-07, No Iterations 24
time step continuity errors : sum local = 1.74953e-12, global = -1.26835e-20, cumulative = 3.04652e-18
particleCloud.calcVelocityCorrection() 
DICPCG:  Solving for phiIB, Initial residual = 0.0291244, Final residual = 7.01844e-07, No Iterations 46
ExecutionTime = 1.24 s  ClockTime = 2 s

Time = 0.0036

Selected 0 cells for refinement out of 6268.
Selected 0 split points out of a possible 264.
Courant Number mean: 5.00083e-05 max: 0.00968457
- evolve()

 timeStepFraction() = 2
Starting up LIGGGHTS
Executing command: 'run 10    '
run 10    
Setting up run at Thu Jun 20 13:30:41 2019

Memory usage per processor = 53.8006 Mbytes
    Step    Atoms         KinEng            rke         Volume 
     111        2    0.003305448              0              4 
CFD Coupling established at step 120
     121        2   0.0037711396              0              4 
Loop time of 0.000248895 on 4 procs for 10 steps with 2 atoms, finish time Thu Jun 20 13:30:41 2019


Pair  time (%) = 7.80925e-06 (3.13756)
Neigh time (%) = 0 (0)
Comm  time (%) = 8.7566e-05 (35.1818)
Outpt time (%) = 1.80282e-05 (7.2433)
Other time (%) = 0.000135492 (54.4373)

Nlocal:    0.5 ave 1 max 0 min
Histogram: 2 0 0 0 0 0 0 0 0 2
Nghost:    1.5 ave 2 max 1 min
Histogram: 2 0 0 0 0 0 0 0 0 2
Neighs:    0.5 ave 1 max 0 min
Histogram: 2 0 0 0 0 0 0 0 0 2

Total # of neighbors = 2
Ave neighs/atom = 1
Neighbor list builds = 0
Dangerous builds = 0
LIGGGHTS finished
nr particles = 2
evolve done.
DILUPBiCG:  Solving for Ux, Initial residual = 0.0379947, Final residual = 1.39197e-07, No Iterations 2
DILUPBiCG:  Solving for Uy, Initial residual = 0.0379947, Final residual = 1.39197e-07, No Iterations 2
DILUPBiCG:  Solving for Uz, Initial residual = 0.00208914, Final residual = 6.27249e-06, No Iterations 1
DICPCG:  Solving for p, Initial residual = 0.530442, Final residual = 8.5361e-07, No Iterations 68
time step continuity errors : sum local = 2.9762e-12, global = 3.99962e-19, cumulative = 3.44649e-18
DICPCG:  Solving for p, Initial residual = 0.14803, Final residual = 8.00632e-07, No Iterations 63
time step continuity errors : sum local = 1.34446e-12, global = 1.50013e-19, cumulative = 3.5965e-18
DICPCG:  Solving for p, Initial residual = 0.00659749, Final residual = 9.92214e-07, No Iterations 42
time step continuity errors : sum local = 1.81776e-12, global = 2.83298e-19, cumulative = 3.8798e-18
DICPCG:  Solving for p, Initial residual = 0.000605215, Final residual = 9.51149e-07, No Iterations 24
time step continuity errors : sum local = 1.74494e-12, global = 1.83358e-19, cumulative = 4.06316e-18
particleCloud.calcVelocityCorrection() 
DICPCG:  Solving for phiIB, Initial residual = 0.0284047, Final residual = 6.21036e-07, No Iterations 46
ExecutionTime = 1.31 s  ClockTime = 2 s

Time = 0.0039

Selected 0 cells for refinement out of 6268.
Selected 0 split points out of a possible 264.
Courant Number mean: 5.40147e-05 max: 0.010386
- evolve()

 timeStepFraction() = 2
Starting up LIGGGHTS
Executing command: 'run 10    '
run 10    
Setting up run at Thu Jun 20 13:30:41 2019

Memory usage per processor = 53.8006 Mbytes
    Step    Atoms         KinEng            rke         Volume 
     121        2   0.0037711396              0              4 
CFD Coupling established at step 130
     131        2   0.0042635035              0              4 
Loop time of 0.000221458 on 4 procs for 10 steps with 2 atoms, finish time Thu Jun 20 13:30:41 2019


Pair  time (%) = 9.3605e-06 (4.22677)
Neigh time (%) = 0 (0)
Comm  time (%) = 8.36615e-05 (37.7776)
Outpt time (%) = 1.80665e-05 (8.15799)
Other time (%) = 0.000110369 (49.8376)

Nlocal:    0.5 ave 1 max 0 min
Histogram: 2 0 0 0 0 0 0 0 0 2
Nghost:    1.5 ave 2 max 1 min
Histogram: 2 0 0 0 0 0 0 0 0 2
Neighs:    0.5 ave 1 max 0 min
Histogram: 2 0 0 0 0 0 0 0 0 2

Total # of neighbors = 2
Ave neighs/atom = 1
Neighbor list builds = 0
Dangerous builds = 0
LIGGGHTS finished
nr particles = 2
evolve done.
DILUPBiCG:  Solving for Ux, Initial residual = 0.0359811, Final residual = 1.34747e-07, No Iterations 2
DILUPBiCG:  Solving for Uy, Initial residual = 0.0359811, Final residual = 1.34747e-07, No Iterations 2
DILUPBiCG:  Solving for Uz, Initial residual = 0.00197873, Final residual = 5.94116e-06, No Iterations 1
DICPCG:  Solving for p, Initial residual = 0.536205, Final residual = 8.54413e-07, No Iterations 68
time step continuity errors : sum local = 3.05746e-12, global = -2.32725e-19, cumulative = 3.83043e-18
DICPCG:  Solving for p, Initial residual = 0.149122, Final residual = 8.00204e-07, No Iterations 63
time step continuity errors : sum local = 1.35394e-12, global = 1.50189e-19, cumulative = 3.98062e-18
DICPCG:  Solving for p, Initial residual = 0.00665381, Final residual = 6.98239e-07, No Iterations 43
time step continuity errors : sum local = 1.3865e-12, global = -3.90908e-19, cumulative = 3.58971e-18
DICPCG:  Solving for p, Initial residual = 0.000606676, Final residual = 9.31975e-07, No Iterations 20
time step continuity errors : sum local = 1.73793e-12, global = -3.82554e-19, cumulative = 3.20716e-18
particleCloud.calcVelocityCorrection() 
DICPCG:  Solving for phiIB, Initial residual = 0.0249248, Final residual = 8.36837e-07, No Iterations 44
ExecutionTime = 1.38 s  ClockTime = 2 s

Time = 0.0042

Selected 0 cells for refinement out of 6268.
Selected 0 split points out of a possible 264.
Courant Number mean: 5.80888e-05 max: 0.0110946
- evolve()

 timeStepFraction() = 2
Starting up LIGGGHTS
Executing command: 'run 10    '
run 10    
Setting up run at Thu Jun 20 13:30:41 2019

Memory usage per processor = 53.8006 Mbytes
    Step    Atoms         KinEng            rke         Volume 
     131        2   0.0042635035              0              4 
CFD Coupling established at step 140
     141        2   0.0047803118              0              4 
Loop time of 0.000251277 on 4 procs for 10 steps with 2 atoms, finish time Thu Jun 20 13:30:41 2019


Pair  time (%) = 8.65225e-06 (3.44331)
Neigh time (%) = 0 (0)
Comm  time (%) = 8.0406e-05 (31.9989)
Outpt time (%) = 1.73667e-05 (6.91138)
Other time (%) = 0.000144852 (57.6464)

Nlocal:    0.5 ave 1 max 0 min
Histogram: 2 0 0 0 0 0 0 0 0 2
Nghost:    1.5 ave 2 max 1 min
Histogram: 2 0 0 0 0 0 0 0 0 2
Neighs:    0.5 ave 1 max 0 min
Histogram: 2 0 0 0 0 0 0 0 0 2

Total # of neighbors = 2
Ave neighs/atom = 1
Neighbor list builds = 0
Dangerous builds = 0
LIGGGHTS finished
nr particles = 2
evolve done.
DILUPBiCG:  Solving for Ux, Initial residual = 0.0341368, Final residual = 1.3012e-07, No Iterations 2
DILUPBiCG:  Solving for Uy, Initial residual = 0.0341368, Final residual = 1.3012e-07, No Iterations 2
DILUPBiCG:  Solving for Uz, Initial residual = 0.00187687, Final residual = 5.63675e-06, No Iterations 1
DICPCG:  Solving for p, Initial residual = 0.542544, Final residual = 8.06545e-07, No Iterations 68
time step continuity errors : sum local = 2.9552e-12, global = -6.23992e-19, cumulative = 2.58316e-18
DICPCG:  Solving for p, Initial residual = 0.149577, Final residual = 8.00359e-07, No Iterations 63
time step continuity errors : sum local = 1.36625e-12, global = -3.66155e-19, cumulative = 2.21701e-18
DICPCG:  Solving for p, Initial residual = 0.00670521, Final residual = 9.9984e-07, No Iterations 42
time step continuity errors : sum local = 1.85901e-12, global = -7.15917e-19, cumulative = 1.50109e-18
DICPCG:  Solving for p, Initial residual = 0.000605335, Final residual = 9.06121e-07, No Iterations 16
time step continuity errors : sum local = 1.71328e-12, global = -2.91016e-19, cumulative = 1.21008e-18
particleCloud.calcVelocityCorrection() 
DICPCG:  Solving for phiIB, Initial residual = 0.0229863, Final residual = 6.01316e-07, No Iterations 45
ExecutionTime = 1.45 s  ClockTime = 2 s

Time = 0.0045

Selected 0 cells for refinement out of 6268.
Selected 0 split points out of a possible 264.
Courant Number mean: 6.22208e-05 max: 0.0118118
- evolve()

 timeStepFraction() = 2
Starting up LIGGGHTS
Executing command: 'run 10    '
run 10    
Setting up run at Thu Jun 20 13:30:41 2019

Memory usage per processor = 53.8006 Mbytes
    Step    Atoms         KinEng            rke         Volume 
     141        2   0.0047803118              0              4 
CFD Coupling established at step 150
     151        2   0.0053213748              0              4 
Loop time of 0.000233142 on 4 procs for 10 steps with 2 atoms, finish time Thu Jun 20 13:30:41 2019


Pair  time (%) = 9.0355e-06 (3.87554)
Neigh time (%) = 0 (0)
Comm  time (%) = 8.1725e-05 (35.0538)
Outpt time (%) = 1.73842e-05 (7.45652)
Other time (%) = 0.000124997 (53.6141)

Nlocal:    0.5 ave 1 max 0 min
Histogram: 2 0 0 0 0 0 0 0 0 2
Nghost:    1.5 ave 2 max 1 min
Histogram: 2 0 0 0 0 0 0 0 0 2
Neighs:    0.5 ave 1 max 0 min
Histogram: 2 0 0 0 0 0 0 0 0 2

Total # of neighbors = 2
Ave neighs/atom = 1
Neighbor list builds = 0
Dangerous builds = 0
LIGGGHTS finished
nr particles = 2
evolve done.
DILUPBiCG:  Solving for Ux, Initial residual = 0.0323977, Final residual = 1.25785e-07, No Iterations 2
DILUPBiCG:  Solving for Uy, Initial residual = 0.0323977, Final residual = 1.25785e-07, No Iterations 2
DILUPBiCG:  Solving for Uz, Initial residual = 0.00177984, Final residual = 5.34812e-06, No Iterations 1
DICPCG:  Solving for p, Initial residual = 0.547433, Final residual = 7.38429e-07, No Iterations 68
time step continuity errors : sum local = 2.7668e-12, global = -3.63534e-19, cumulative = 8.46543e-19
DICPCG:  Solving for p, Initial residual = 0.149298, Final residual = 7.97302e-07, No Iterations 63
time step continuity errors : sum local = 1.37286e-12, global = -3.80229e-19, cumulative = 4.66315e-19
DICPCG:  Solving for p, Initial residual = 0.00667383, Final residual = 9.9112e-07, No Iterations 42
time step continuity errors : sum local = 1.8771e-12, global = -8.85789e-20, cumulative = 3.77736e-19
DICPCG:  Solving for p, Initial residual = 0.000597826, Final residual = 9.80551e-07, No Iterations 15
time step continuity errors : sum local = 1.85929e-12, global = -6.29632e-19, cumulative = -2.51896e-19
particleCloud.calcVelocityCorrection() 
DICPCG:  Solving for phiIB, Initial residual = 0.0238783, Final residual = 9.10717e-07, No Iterations 42
ExecutionTime = 1.56 s  ClockTime = 2 s

Time = 0.0048

Selected 0 cells for refinement out of 6268.
Selected 0 split points out of a possible 264.
Courant Number mean: 6.64038e-05 max: 0.0125336
- evolve()

 timeStepFraction() = 2
Starting up LIGGGHTS
Executing command: 'run 10    '
run 10    
Setting up run at Thu Jun 20 13:30:41 2019

Memory usage per processor = 53.8006 Mbytes
    Step    Atoms         KinEng            rke         Volume 
     151        2   0.0053213748              0              4 
CFD Coupling established at step 160
     161        2    0.005891573              0              4 
Loop time of 0.000249422 on 4 procs for 10 steps with 2 atoms, finish time Thu Jun 20 13:30:41 2019


Pair  time (%) = 1.68708e-05 (6.76393)
Neigh time (%) = 0 (0)
Comm  time (%) = 7.83195e-05 (31.4004)
Outpt time (%) = 4.00402e-05 (16.0532)
Other time (%) = 0.000114192 (45.7825)

Nlocal:    0.5 ave 1 max 0 min
Histogram: 2 0 0 0 0 0 0 0 0 2
Nghost:    1.5 ave 2 max 1 min
Histogram: 2 0 0 0 0 0 0 0 0 2
Neighs:    0.5 ave 1 max 0 min
Histogram: 2 0 0 0 0 0 0 0 0 2

Total # of neighbors = 2
Ave neighs/atom = 1
Neighbor list builds = 0
Dangerous builds = 0
LIGGGHTS finished
nr particles = 2
evolve done.
DILUPBiCG:  Solving for Ux, Initial residual = 0.0307251, Final residual = 1.22077e-07, No Iterations 2
DILUPBiCG:  Solving for Uy, Initial residual = 0.0307251, Final residual = 1.22077e-07, No Iterations 2
DILUPBiCG:  Solving for Uz, Initial residual = 0.00168635, Final residual = 5.07407e-06, No Iterations 1
DICPCG:  Solving for p, Initial residual = 0.553291, Final residual = 9.54592e-07, No Iterations 67
time step continuity errors : sum local = 3.63718e-12, global = 7.55368e-19, cumulative = 5.03471e-19
DICPCG:  Solving for p, Initial residual = 0.148858, Final residual = 8.01658e-07, No Iterations 63
time step continuity errors : sum local = 1.38553e-12, global = 4.2262e-19, cumulative = 9.26091e-19
DICPCG:  Solving for p, Initial residual = 0.00670714, Final residual = 9.83343e-07, No Iterations 42
time step continuity errors : sum local = 1.89557e-12, global = -2.85241e-19, cumulative = 6.4085e-19
DICPCG:  Solving for p, Initial residual = 0.00059121, Final residual = 9.57765e-07, No Iterations 15
time step continuity errors : sum local = 1.85383e-12, global = -4.93537e-19, cumulative = 1.47313e-19
particleCloud.calcVelocityCorrection() 
DICPCG:  Solving for phiIB, Initial residual = 0.0214083, Final residual = 6.20056e-07, No Iterations 45
ExecutionTime = 1.64 s  ClockTime = 2 s

Time = 0.0051

Selected 0 cells for refinement out of 6268.
Selected 0 split points out of a possible 264.
Courant Number mean: 7.06202e-05 max: 0.0132663
- evolve()

 timeStepFraction() = 2
Starting up LIGGGHTS
Executing command: 'run 10    '
run 10    
Setting up run at Thu Jun 20 13:30:41 2019

Memory usage per processor = 53.8006 Mbytes
    Step    Atoms         KinEng            rke         Volume 
     161        2    0.005891573              0              4 
CFD Coupling established at step 170
     171        2    0.006487074              0              4 
Loop time of 0.000243359 on 4 procs for 10 steps with 2 atoms, finish time Thu Jun 20 13:30:41 2019


Pair  time (%) = 8.16625e-06 (3.35564)
Neigh time (%) = 0 (0)
Comm  time (%) = 6.91633e-05 (28.4202)
Outpt time (%) = 1.72098e-05 (7.07175)
Other time (%) = 0.00014882 (61.1524)

Nlocal:    0.5 ave 1 max 0 min
Histogram: 2 0 0 0 0 0 0 0 0 2
Nghost:    1.5 ave 2 max 1 min
Histogram: 2 0 0 0 0 0 0 0 0 2
Neighs:    0.5 ave 1 max 0 min
Histogram: 2 0 0 0 0 0 0 0 0 2

Total # of neighbors = 2
Ave neighs/atom = 1
Neighbor list builds = 0
Dangerous builds = 0
LIGGGHTS finished
nr particles = 2
evolve done.
DILUPBiCG:  Solving for Ux, Initial residual = 0.0293482, Final residual = 1.18137e-07, No Iterations 2
DILUPBiCG:  Solving for Uy, Initial residual = 0.0293482, Final residual = 1.18137e-07, No Iterations 2
DILUPBiCG:  Solving for Uz, Initial residual = 0.00160823, Final residual = 4.84017e-06, No Iterations 1
DICPCG:  Solving for p, Initial residual = 0.557739, Final residual = 9.33711e-07, No Iterations 67
time step continuity errors : sum local = 3.62531e-12, global = 7.09863e-20, cumulative = 2.18299e-19
DICPCG:  Solving for p, Initial residual = 0.148867, Final residual = 8.06508e-07, No Iterations 63
time step continuity errors : sum local = 1.40596e-12, global = -6.36785e-19, cumulative = -4.18486e-19
DICPCG:  Solving for p, Initial residual = 0.00670272, Final residual = 9.83326e-07, No Iterations 42
time step continuity errors : sum local = 1.93265e-12, global = -9.03194e-19, cumulative = -1.32168e-18
DICPCG:  Solving for p, Initial residual = 0.000589092, Final residual = 9.78299e-07, No Iterations 15
time step continuity errors : sum local = 1.92253e-12, global = -7.86816e-19, cumulative = -2.1085e-18
particleCloud.calcVelocityCorrection() 
DICPCG:  Solving for phiIB, Initial residual = 0.0202544, Final residual = 6.28033e-07, No Iterations 45
ExecutionTime = 1.76 s  ClockTime = 2 s

Time = 0.0054

Selected 8 cells for refinement out of 6268.
Refined from 6268 to 6324 cells.
Selected 0 split points out of a possible 272.
Courant Number mean: 7.59903e-05 max: 0.0139982
- evolve()

 timeStepFraction() = 2
Starting up LIGGGHTS
Executing command: 'run 10    '
run 10    
Setting up run at Thu Jun 20 13:30:41 2019

Memory usage per processor = 53.8006 Mbytes
    Step    Atoms         KinEng            rke         Volume 
     171        2    0.006487074              0              4 
CFD Coupling established at step 180
     181        2    0.007105324              0              4 
Loop time of 0.000215307 on 4 procs for 10 steps with 2 atoms, finish time Thu Jun 20 13:30:41 2019


Pair  time (%) = 9.7535e-06 (4.53005)
Neigh time (%) = 0 (0)
Comm  time (%) = 8.2754e-05 (38.4354)
Outpt time (%) = 1.8101e-05 (8.40708)
Other time (%) = 0.000104698 (48.6274)

Nlocal:    0.5 ave 1 max 0 min
Histogram: 2 0 0 0 0 0 0 0 0 2
Nghost:    1.5 ave 2 max 1 min
Histogram: 2 0 0 0 0 0 0 0 0 2
Neighs:    0.5 ave 1 max 0 min
Histogram: 2 0 0 0 0 0 0 0 0 2

Total # of neighbors = 2
Ave neighs/atom = 1
Neighbor list builds = 0
Dangerous builds = 0
LIGGGHTS finished
nr particles = 2
evolve done.
DILUPBiCG:  Solving for Ux, Initial residual = 0.0281196, Final residual = 1.14436e-07, No Iterations 2
DILUPBiCG:  Solving for Uy, Initial residual = 0.0281196, Final residual = 1.14436e-07, No Iterations 2
DILUPBiCG:  Solving for Uz, Initial residual = 0.00152342, Final residual = 4.6362e-06, No Iterations 1
DICPCG:  Solving for p, Initial residual = 0.613573, Final residual = 8.0354e-07, No Iterations 68
time step continuity errors : sum local = 3.53128e-12, global = -2.49868e-19, cumulative = -2.35836e-18
DICPCG:  Solving for p, Initial residual = 0.121198, Final residual = 8.64153e-07, No Iterations 63
time step continuity errors : sum local = 2.09976e-12, global = 8.5507e-21, cumulative = -2.34981e-18
DICPCG:  Solving for p, Initial residual = 0.00647099, Final residual = 9.33795e-07, No Iterations 59
time step continuity errors : sum local = 2.12557e-12, global = -1.16805e-19, cumulative = -2.46662e-18
DICPCG:  Solving for p, Initial residual = 0.000670348, Final residual = 8.96459e-07, No Iterations 32
time step continuity errors : sum local = 2.20254e-12, global = -9.16858e-20, cumulative = -2.5583e-18
particleCloud.calcVelocityCorrection() 
DICPCG:  Solving for phiIB, Initial residual = 0.0887164, Final residual = 9.62491e-07, No Iterations 49
ExecutionTime = 1.96 s  ClockTime = 2 s

Time = 0.0057

Selected 0 cells for refinement out of 6324.
Selected 0 split points out of a possible 272.
Courant Number mean: 8.0254e-05 max: 0.0147296
- evolve()

 timeStepFraction() = 2
Starting up LIGGGHTS
Executing command: 'run 10    '
run 10    
Setting up run at Thu Jun 20 13:30:41 2019

Memory usage per processor = 53.8006 Mbytes
    Step    Atoms         KinEng            rke         Volume 
     181        2    0.007105324              0              4 
CFD Coupling established at step 190
     191        2   0.0077395698              0              4 
Loop time of 0.000257964 on 4 procs for 10 steps with 2 atoms, finish time Thu Jun 20 13:30:41 2019


Pair  time (%) = 7.41475e-06 (2.87434)
Neigh time (%) = 0 (0)
Comm  time (%) = 9.33825e-05 (36.1999)
Outpt time (%) = 1.75927e-05 (6.81985)
Other time (%) = 0.000139574 (54.106)

Nlocal:    0.5 ave 1 max 0 min
Histogram: 2 0 0 0 0 0 0 0 0 2
Nghost:    1.5 ave 2 max 1 min
Histogram: 2 0 0 0 0 0 0 0 0 2
Neighs:    0.5 ave 1 max 0 min
Histogram: 2 0 0 0 0 0 0 0 0 2

Total # of neighbors = 2
Ave neighs/atom = 1
Neighbor list builds = 0
Dangerous builds = 0
LIGGGHTS finished
nr particles = 2
evolve done.
DILUPBiCG:  Solving for Ux, Initial residual = 0.0280645, Final residual = 1.11984e-07, No Iterations 2
DILUPBiCG:  Solving for Uy, Initial residual = 0.0280645, Final residual = 1.11984e-07, No Iterations 2
DILUPBiCG:  Solving for Uz, Initial residual = 0.00158629, Final residual = 4.79294e-06, No Iterations 1
DICPCG:  Solving for p, Initial residual = 0.596824, Final residual = 6.20614e-07, No Iterations 68
time step continuity errors : sum local = 2.85819e-12, global = 4.36857e-19, cumulative = -2.12145e-18
DICPCG:  Solving for p, Initial residual = 0.154398, Final residual = 6.96963e-07, No Iterations 64
time step continuity errors : sum local = 1.32335e-12, global = 1.03627e-19, cumulative = -2.01782e-18
DICPCG:  Solving for p, Initial residual = 0.00765789, Final residual = 9.17132e-07, No Iterations 42
time step continuity errors : sum local = 1.70134e-12, global = 2.53833e-19, cumulative = -1.76399e-18
DICPCG:  Solving for p, Initial residual = 0.000658907, Final residual = 9.09384e-07, No Iterations 35
time step continuity errors : sum local = 1.84351e-12, global = 1.29146e-19, cumulative = -1.63484e-18
particleCloud.calcVelocityCorrection() 
DICPCG:  Solving for phiIB, Initial residual = 0.045559, Final residual = 7.0854e-07, No Iterations 49
ExecutionTime = 2.1 s  ClockTime = 3 s

Time = 0.006

Selected 0 cells for refinement out of 6324.
Selected 0 split points out of a possible 272.
Courant Number mean: 8.45102e-05 max: 0.0154586
- evolve()

 timeStepFraction() = 2
Starting up LIGGGHTS
Executing command: 'run 10    '
run 10    
Setting up run at Thu Jun 20 13:30:42 2019

Memory usage per processor = 53.8006 Mbytes
    Step    Atoms         KinEng            rke         Volume 
     191        2   0.0077395698              0              4 
CFD Coupling established at step 200
     201        2   0.0083798362              0              4 
Loop time of 0.000342392 on 4 procs for 10 steps with 2 atoms, finish time Thu Jun 20 13:30:42 2019


Pair  time (%) = 8.85775e-06 (2.58702)
Neigh time (%) = 0 (0)
Comm  time (%) = 3.85232e-05 (11.2512)
Outpt time (%) = 4.8665e-05 (14.2132)
Other time (%) = 0.000246346 (71.9485)

Nlocal:    0.5 ave 1 max 0 min
Histogram: 2 0 0 0 0 0 0 0 0 2
Nghost:    1.5 ave 2 max 1 min
Histogram: 2 0 0 0 0 0 0 0 0 2
Neighs:    0.5 ave 1 max 0 min
Histogram: 2 0 0 0 0 0 0 0 0 2

Total # of neighbors = 2
Ave neighs/atom = 1
Neighbor list builds = 0
Dangerous builds = 0
LIGGGHTS finished
nr particles = 2
evolve done.
DILUPBiCG:  Solving for Ux, Initial residual = 0.0260092, Final residual = 1.09134e-07, No Iterations 2
DILUPBiCG:  Solving for Uy, Initial residual = 0.0260092, Final residual = 1.09134e-07, No Iterations 2
DILUPBiCG:  Solving for Uz, Initial residual = 0.00145067, Final residual = 4.42831e-06, No Iterations 1
DICPCG:  Solving for p, Initial residual = 0.584385, Final residual = 8.17098e-07, No Iterations 68
time step continuity errors : sum local = 3.56888e-12, global = 3.68711e-20, cumulative = -1.59797e-18
DICPCG:  Solving for p, Initial residual = 0.146806, Final residual = 9.15035e-07, No Iterations 63
time step continuity errors : sum local = 1.71246e-12, global = 1.11606e-19, cumulative = -1.48636e-18
DICPCG:  Solving for p, Initial residual = 0.00655286, Final residual = 9.05052e-07, No Iterations 42
time step continuity errors : sum local = 2.10197e-12, global = -2.37924e-19, cumulative = -1.72429e-18
DICPCG:  Solving for p, Initial residual = 0.000571142, Final residual = 7.27229e-07, No Iterations 52
time step continuity errors : sum local = 1.23648e-12, global = -1.46738e-19, cumulative = -1.87103e-18
particleCloud.calcVelocityCorrection() 
DICPCG:  Solving for phiIB, Initial residual = 0.0331236, Final residual = 8.72568e-07, No Iterations 47
ExecutionTime = 2.34 s  ClockTime = 3 s

Time = 0.0063

Selected 0 cells for refinement out of 6324.
Selected 0 split points out of a possible 272.
Courant Number mean: 8.8825e-05 max: 0.0161801
- evolve()

 timeStepFraction() = 2
Starting up LIGGGHTS
Executing command: 'run 10    '
run 10    
Setting up run at Thu Jun 20 13:30:42 2019

Memory usage per processor = 53.8006 Mbytes
    Step    Atoms         KinEng            rke         Volume 
     201        2   0.0083798362              0              4 
CFD Coupling established at step 210
     211        2   0.0090515079              0              4 
Loop time of 0.000218355 on 4 procs for 10 steps with 2 atoms, finish time Thu Jun 20 13:30:42 2019


Pair  time (%) = 8.28275e-06 (3.79326)
Neigh time (%) = 0 (0)
Comm  time (%) = 5.35953e-05 (24.5451)
Outpt time (%) = 4.68525e-05 (21.4571)
Other time (%) = 0.000109624 (50.2046)

Nlocal:    0.5 ave 1 max 0 min
Histogram: 2 0 0 0 0 0 0 0 0 2
Nghost:    1.5 ave 2 max 1 min
Histogram: 2 0 0 0 0 0 0 0 0 2
Neighs:    0.5 ave 1 max 0 min
Histogram: 2 0 0 0 0 0 0 0 0 2

Total # of neighbors = 2
Ave neighs/atom = 1
Neighbor list builds = 0
Dangerous builds = 0
LIGGGHTS finished
nr particles = 2
evolve done.
DILUPBiCG:  Solving for Ux, Initial residual = 0.02458, Final residual = 1.0473e-07, No Iterations 2
DILUPBiCG:  Solving for Uy, Initial residual = 0.02458, Final residual = 1.0473e-07, No Iterations 2
DILUPBiCG:  Solving for Uz, Initial residual = 0.00132326, Final residual = 4.01534e-06, No Iterations 1
DICPCG:  Solving for p, Initial residual = 0.580723, Final residual = 7.48772e-07, No Iterations 68
time step continuity errors : sum local = 3.25315e-12, global = 1.30824e-21, cumulative = -1.86972e-18
DICPCG:  Solving for p, Initial residual = 0.14199, Final residual = 8.93903e-07, No Iterations 63
time step continuity errors : sum local = 1.67091e-12, global = -4.06375e-19, cumulative = -2.27609e-18
DICPCG:  Solving for p, Initial residual = 0.00629378, Final residual = 7.64375e-07, No Iterations 42
time step continuity errors : sum local = 1.66596e-12, global = 2.51672e-19, cumulative = -2.02442e-18
DICPCG:  Solving for p, Initial residual = 0.000554825, Final residual = 9.80296e-07, No Iterations 14
time step continuity errors : sum local = 2.03086e-12, global = 7.68143e-20, cumulative = -1.94761e-18
particleCloud.calcVelocityCorrection() 
DICPCG:  Solving for phiIB, Initial residual = 0.0267433, Final residual = 9.24874e-07, No Iterations 45
ExecutionTime = 2.41 s  ClockTime = 3 s

Time = 0.0066

Selected 0 cells for refinement out of 6324.
Selected 0 split points out of a possible 272.
Courant Number mean: 9.31536e-05 max: 0.0168933
- evolve()

 timeStepFraction() = 2
Starting up LIGGGHTS
Executing command: 'run 10    '
run 10    
Setting up run at Thu Jun 20 13:30:42 2019

Memory usage per processor = 53.8006 Mbytes
    Step    Atoms         KinEng            rke         Volume 
     211        2   0.0090515079              0              4 
CFD Coupling established at step 220
     221        2   0.0097626876              0              4 
Loop time of 0.000213339 on 4 procs for 10 steps with 2 atoms, finish time Thu Jun 20 13:30:42 2019


Pair  time (%) = 7.76875e-06 (3.64151)
Neigh time (%) = 0 (0)
Comm  time (%) = 5.15e-05 (24.14)
Outpt time (%) = 4.64503e-05 (21.773)
Other time (%) = 0.00010762 (50.4454)

Nlocal:    0.5 ave 1 max 0 min
Histogram: 2 0 0 0 0 0 0 0 0 2
Nghost:    1.5 ave 2 max 1 min
Histogram: 2 0 0 0 0 0 0 0 0 2
Neighs:    0.5 ave 1 max 0 min
Histogram: 2 0 0 0 0 0 0 0 0 2

Total # of neighbors = 2
Ave neighs/atom = 1
Neighbor list builds = 0
Dangerous builds = 0
LIGGGHTS finished
nr particles = 2
evolve done.
DILUPBiCG:  Solving for Ux, Initial residual = 0.0235118, Final residual = 1.00787e-07, No Iterations 2
DILUPBiCG:  Solving for Uy, Initial residual = 0.0235118, Final residual = 1.00787e-07, No Iterations 2
DILUPBiCG:  Solving for Uz, Initial residual = 0.00127092, Final residual = 3.85109e-06, No Iterations 1
DICPCG:  Solving for p, Initial residual = 0.581927, Final residual = 7.47057e-07, No Iterations 68
time step continuity errors : sum local = 3.26258e-12, global = 1.3469e-19, cumulative = -1.81292e-18
DICPCG:  Solving for p, Initial residual = 0.141358, Final residual = 9.27027e-07, No Iterations 63
time step continuity errors : sum local = 1.73779e-12, global = 6.80963e-20, cumulative = -1.74482e-18
DICPCG:  Solving for p, Initial residual = 0.00629584, Final residual = 8.31727e-07, No Iterations 42
time step continuity errors : sum local = 1.91391e-12, global = 1.09715e-19, cumulative = -1.6351e-18
DICPCG:  Solving for p, Initial residual = 0.000561204, Final residual = 9.98544e-07, No Iterations 14
time step continuity errors : sum local = 2.1957e-12, global = 1.68085e-19, cumulative = -1.46702e-18
particleCloud.calcVelocityCorrection() 
DICPCG:  Solving for phiIB, Initial residual = 0.0244822, Final residual = 8.56152e-07, No Iterations 45
ExecutionTime = 2.47 s  ClockTime = 3 s

Time = 0.0069

Selected 0 cells for refinement out of 6324.
Selected 4 split points out of a possible 272.
Unrefined from 6324 to 6296 cells.
Courant Number mean: 9.70762e-05 max: 0.0176014
- evolve()

 timeStepFraction() = 2
Starting up LIGGGHTS
Executing command: 'run 10    '
run 10    
Setting up run at Thu Jun 20 13:30:42 2019

Memory usage per processor = 53.8006 Mbytes
    Step    Atoms         KinEng            rke         Volume 
     221        2   0.0097626876              0              4 
CFD Coupling established at step 230
     231        2    0.010497988              0              4 
Loop time of 0.000290843 on 4 procs for 10 steps with 2 atoms, finish time Thu Jun 20 13:30:42 2019


Pair  time (%) = 8.41475e-06 (2.89323)
Neigh time (%) = 0 (0)
Comm  time (%) = 6.10065e-05 (20.9758)
Outpt time (%) = 5.27117e-05 (18.1238)
Other time (%) = 0.00016871 (58.0072)

Nlocal:    0.5 ave 1 max 0 min
Histogram: 2 0 0 0 0 0 0 0 0 2
Nghost:    1.5 ave 2 max 1 min
Histogram: 2 0 0 0 0 0 0 0 0 2
Neighs:    0.5 ave 1 max 0 min
Histogram: 2 0 0 0 0 0 0 0 0 2

Total # of neighbors = 2
Ave neighs/atom = 1
Neighbor list builds = 0
Dangerous builds = 0
LIGGGHTS finished
nr particles = 2
evolve done.
DILUPBiCG:  Solving for Ux, Initial residual = 0.0227244, Final residual = 9.63906e-08, No Iterations 2
DILUPBiCG:  Solving for Uy, Initial residual = 0.0227244, Final residual = 9.63906e-08, No Iterations 2
DILUPBiCG:  Solving for Uz, Initial residual = 0.0012517, Final residual = 3.74335e-06, No Iterations 1
DICPCG:  Solving for p, Initial residual = 0.598155, Final residual = 8.54174e-07, No Iterations 68
time step continuity errors : sum local = 3.87669e-12, global = -2.12002e-20, cumulative = -1.48822e-18
DICPCG:  Solving for p, Initial residual = 0.130861, Final residual = 8.19335e-07, No Iterations 63
time step continuity errors : sum local = 1.76814e-12, global = 3.53775e-19, cumulative = -1.13444e-18
DICPCG:  Solving for p, Initial residual = 0.00612035, Final residual = 8.58498e-07, No Iterations 37
time step continuity errors : sum local = 2.42351e-12, global = 3.95302e-19, cumulative = -7.39142e-19
DICPCG:  Solving for p, Initial residual = 0.000521878, Final residual = 7.14123e-07, No Iterations 52
time step continuity errors : sum local = 1.41684e-12, global = 3.62041e-19, cumulative = -3.77102e-19
particleCloud.calcVelocityCorrection() 
DICPCG:  Solving for phiIB, Initial residual = 0.0455849, Final residual = 7.99115e-07, No Iterations 49
ExecutionTime = 2.61 s  ClockTime = 3 s

Time = 0.0072

Selected 0 cells for refinement out of 6296.
Selected 0 split points out of a possible 272.
Courant Number mean: 0.000101466 max: 0.0183455
- evolve()

 timeStepFraction() = 2
Starting up LIGGGHTS
Executing command: 'run 10    '
run 10    
Setting up run at Thu Jun 20 13:30:42 2019

Memory usage per processor = 53.8006 Mbytes
    Step    Atoms         KinEng            rke         Volume 
     231        2    0.010497988              0              4 
CFD Coupling established at step 240
     241        2    0.011252827              0              4 
Loop time of 0.000233699 on 4 procs for 10 steps with 2 atoms, finish time Thu Jun 20 13:30:42 2019


Pair  time (%) = 7.45825e-06 (3.19139)
Neigh time (%) = 0 (0)
Comm  time (%) = 6.07205e-05 (25.9824)
Outpt time (%) = 4.67127e-05 (19.9884)
Other time (%) = 0.000118807 (50.8378)

Nlocal:    0.5 ave 1 max 0 min
Histogram: 2 0 0 0 0 0 0 0 0 2
Nghost:    1.5 ave 2 max 1 min
Histogram: 2 0 0 0 0 0 0 0 0 2
Neighs:    0.5 ave 1 max 0 min
Histogram: 2 0 0 0 0 0 0 0 0 2

Total # of neighbors = 2
Ave neighs/atom = 1
Neighbor list builds = 0
Dangerous builds = 0
LIGGGHTS finished
nr particles = 2
evolve done.
DILUPBiCG:  Solving for Ux, Initial residual = 0.0224457, Final residual = 9.21072e-08, No Iterations 2
DILUPBiCG:  Solving for Uy, Initial residual = 0.0224457, Final residual = 9.21072e-08, No Iterations 2
DILUPBiCG:  Solving for Uz, Initial residual = 0.00123075, Final residual = 3.71539e-06, No Iterations 1
DICPCG:  Solving for p, Initial residual = 0.592475, Final residual = 9.14077e-07, No Iterations 67
time step continuity errors : sum local = 4.19908e-12, global = -4.55313e-20, cumulative = -4.22633e-19
DICPCG:  Solving for p, Initial residual = 0.138775, Final residual = 6.12498e-07, No Iterations 63
time step continuity errors : sum local = 1.17468e-12, global = 5.37287e-19, cumulative = 1.14654e-19
DICPCG:  Solving for p, Initial residual = 0.00629374, Final residual = 8.23397e-07, No Iterations 42
time step continuity errors : sum local = 2.10381e-12, global = 5.54134e-19, cumulative = 6.68788e-19
DICPCG:  Solving for p, Initial residual = 0.000564376, Final residual = 7.56909e-07, No Iterations 52
time step continuity errors : sum local = 1.33177e-12, global = 3.77802e-20, cumulative = 7.06569e-19
particleCloud.calcVelocityCorrection() 
DICPCG:  Solving for phiIB, Initial residual = 0.0409579, Final residual = 7.29265e-07, No Iterations 48
ExecutionTime = 2.68 s  ClockTime = 3 s

Time = 0.0075

Selected 0 cells for refinement out of 6296.
Selected 0 split points out of a possible 272.
Courant Number mean: 0.000105794 max: 0.0190158
- evolve()

 timeStepFraction() = 2
Starting up LIGGGHTS
Executing command: 'run 10    '
run 10    
Setting up run at Thu Jun 20 13:30:42 2019

Memory usage per processor = 53.8006 Mbytes
    Step    Atoms         KinEng            rke         Volume 
     241        2    0.011252827              0              4 
CFD Coupling established at step 250
     251        2    0.012032683              0              4 
Loop time of 0.000330076 on 4 procs for 10 steps with 2 atoms, finish time Thu Jun 20 13:30:42 2019


Pair  time (%) = 9.48175e-06 (2.8726)
Neigh time (%) = 0 (0)
Comm  time (%) = 6.94135e-05 (21.0296)
Outpt time (%) = 8.29707e-05 (25.1369)
Other time (%) = 0.00016821 (50.961)

Nlocal:    0.5 ave 1 max 0 min
Histogram: 2 0 0 0 0 0 0 0 0 2
Nghost:    1.5 ave 2 max 1 min
Histogram: 2 0 0 0 0 0 0 0 0 2
Neighs:    0.5 ave 1 max 0 min
Histogram: 2 0 0 0 0 0 0 0 0 2

Total # of neighbors = 2
Ave neighs/atom = 1
Neighbor list builds = 0
Dangerous builds = 0
LIGGGHTS finished
nr particles = 2
evolve done.
DILUPBiCG:  Solving for Ux, Initial residual = 0.0212095, Final residual = 8.91409e-08, No Iterations 2
DILUPBiCG:  Solving for Uy, Initial residual = 0.0212095, Final residual = 8.91409e-08, No Iterations 2
DILUPBiCG:  Solving for Uz, Initial residual = 0.00119359, Final residual = 3.5542e-06, No Iterations 1
DICPCG:  Solving for p, Initial residual = 0.590395, Final residual = 8.95749e-07, No Iterations 68
time step continuity errors : sum local = 4.08374e-12, global = -4.40478e-19, cumulative = 2.6609e-19
DICPCG:  Solving for p, Initial residual = 0.140413, Final residual = 7.86338e-07, No Iterations 63
time step continuity errors : sum local = 1.51415e-12, global = -1.74e-19, cumulative = 9.20897e-20
DICPCG:  Solving for p, Initial residual = 0.00647627, Final residual = 8.27556e-07, No Iterations 57
time step continuity errors : sum local = 1.45633e-12, global = -3.07185e-19, cumulative = -2.15095e-19
DICPCG:  Solving for p, Initial residual = 0.000557592, Final residual = 9.02683e-07, No Iterations 14
time step continuity errors : sum local = 1.59182e-12, global = -6.8203e-19, cumulative = -8.97125e-19
particleCloud.calcVelocityCorrection() 
DICPCG:  Solving for phiIB, Initial residual = 0.0328404, Final residual = 6.27612e-07, No Iterations 47
ExecutionTime = 2.74 s  ClockTime = 3 s

Time = 0.0078

Selected 0 cells for refinement out of 6296.
Selected 0 split points out of a possible 272.
Courant Number mean: 0.000110176 max: 0.0197083
- evolve()

 timeStepFraction() = 2
Starting up LIGGGHTS
Executing command: 'run 10    '
run 10    
Setting up run at Thu Jun 20 13:30:42 2019

Memory usage per processor = 53.8006 Mbytes
    Step    Atoms         KinEng            rke         Volume 
     251        2    0.012032683              0              4 
CFD Coupling established at step 260
     261        2    0.012816244              0              4 
Loop time of 0.000274983 on 4 procs for 10 steps with 2 atoms, finish time Thu Jun 20 13:30:42 2019


Pair  time (%) = 1.0094e-05 (3.67078)
Neigh time (%) = 0 (0)
Comm  time (%) = 6.4512e-05 (23.4604)
Outpt time (%) = 4.8843e-05 (17.7622)
Other time (%) = 0.000151534 (55.1066)

Nlocal:    0.5 ave 1 max 0 min
Histogram: 2 0 0 0 0 0 0 0 0 2
Nghost:    1.5 ave 2 max 1 min
Histogram: 2 0 0 0 0 0 0 0 0 2
Neighs:    0.5 ave 1 max 0 min
Histogram: 2 0 0 0 0 0 0 0 0 2

Total # of neighbors = 2
Ave neighs/atom = 1
Neighbor list builds = 0
Dangerous builds = 0
LIGGGHTS finished
nr particles = 2
evolve done.
DILUPBiCG:  Solving for Ux, Initial residual = 0.0206859, Final residual = 8.65023e-08, No Iterations 2
DILUPBiCG:  Solving for Uy, Initial residual = 0.0206859, Final residual = 8.65023e-08, No Iterations 2
DILUPBiCG:  Solving for Uz, Initial residual = 0.00114171, Final residual = 3.4027e-06, No Iterations 1
DICPCG:  Solving for p, Initial residual = 0.588028, Final residual = 8.06722e-07, No Iterations 68
time step continuity errors : sum local = 3.73307e-12, global = -4.77098e-19, cumulative = -1.37422e-18
DICPCG:  Solving for p, Initial residual = 0.137901, Final residual = 7.54445e-07, No Iterations 63
time step continuity errors : sum local = 1.47635e-12, global = -1.27389e-19, cumulative = -1.50161e-18
DICPCG:  Solving for p, Initial residual = 0.00625537, Final residual = 7.60155e-07, No Iterations 57
time step continuity errors : sum local = 1.36144e-12, global = -7.93902e-19, cumulative = -2.29551e-18
DICPCG:  Solving for p, Initial residual = 0.000540268, Final residual = 9.78028e-07, No Iterations 14
time step continuity errors : sum local = 1.75487e-12, global = -6.01716e-19, cumulative = -2.89723e-18
particleCloud.calcVelocityCorrection() 
DICPCG:  Solving for phiIB, Initial residual = 0.0290848, Final residual = 6.36195e-07, No Iterations 46
ExecutionTime = 2.81 s  ClockTime = 3 s

Time = 0.0081

Selected 0 cells for refinement out of 6296.
Selected 0 split points out of a possible 272.
Courant Number mean: 0.000114611 max: 0.0204238
- evolve()

 timeStepFraction() = 2
Starting up LIGGGHTS
Executing command: 'run 10    '
run 10    
Setting up run at Thu Jun 20 13:30:42 2019

Memory usage per processor = 53.8006 Mbytes
    Step    Atoms         KinEng            rke         Volume 
     261        2    0.012816244              0              4 
CFD Coupling established at step 270
     271        2    0.013607377              0              4 
Loop time of 0.00023143 on 4 procs for 10 steps with 2 atoms, finish time Thu Jun 20 13:30:42 2019


Pair  time (%) = 7.7995e-06 (3.37014)
Neigh time (%) = 0 (0)
Comm  time (%) = 2.1614e-05 (9.33934)
Outpt time (%) = 6.07005e-05 (26.2285)
Other time (%) = 0.000141316 (61.0621)

Nlocal:    0.5 ave 2 max 0 min
Histogram: 3 0 0 0 0 0 0 0 0 1
Nghost:    1.5 ave 2 max 0 min
Histogram: 1 0 0 0 0 0 0 0 0 3
Neighs:    0.25 ave 1 max 0 min
Histogram: 3 0 0 0 0 0 0 0 0 1

Total # of neighbors = 1
Ave neighs/atom = 0.5
Neighbor list builds = 0
Dangerous builds = 0
LIGGGHTS finished
nr particles = 2
evolve done.
DILUPBiCG:  Solving for Ux, Initial residual = 0.0199673, Final residual = 8.3765e-08, No Iterations 2
DILUPBiCG:  Solving for Uy, Initial residual = 0.0199673, Final residual = 8.3765e-08, No Iterations 2
DILUPBiCG:  Solving for Uz, Initial residual = 0.00110428, Final residual = 3.29863e-06, No Iterations 1
DICPCG:  Solving for p, Initial residual = 0.588921, Final residual = 7.85425e-07, No Iterations 68
time step continuity errors : sum local = 3.69288e-12, global = -6.5944e-19, cumulative = -3.55667e-18
DICPCG:  Solving for p, Initial residual = 0.135729, Final residual = 7.15248e-07, No Iterations 63
time step continuity errors : sum local = 1.41484e-12, global = -7.67963e-19, cumulative = -4.32463e-18
DICPCG:  Solving for p, Initial residual = 0.00612452, Final residual = 7.55594e-07, No Iterations 57
time step continuity errors : sum local = 1.37012e-12, global = -1.76521e-19, cumulative = -4.50115e-18
DICPCG:  Solving for p, Initial residual = 0.000531037, Final residual = 8.17394e-07, No Iterations 15
time step continuity errors : sum local = 1.48473e-12, global = 6.21117e-21, cumulative = -4.49494e-18
particleCloud.calcVelocityCorrection() 
DICPCG:  Solving for phiIB, Initial residual = 0.0282674, Final residual = 6.75695e-07, No Iterations 46
ExecutionTime = 2.88 s  ClockTime = 3 s

Time = 0.0084

Selected 0 cells for refinement out of 6296.
Selected 0 split points out of a possible 272.
Courant Number mean: 0.000119059 max: 0.0211335
- evolve()

 timeStepFraction() = 2
Starting up LIGGGHTS
Executing command: 'run 10    '
run 10    
Setting up run at Thu Jun 20 13:30:42 2019

Memory usage per processor = 53.8006 Mbytes
    Step    Atoms         KinEng            rke         Volume 
     271        2    0.013607377              0              4 
CFD Coupling established at step 280
     281        2    0.014413198              0              4 
Loop time of 0.000204596 on 4 procs for 10 steps with 2 atoms, finish time Thu Jun 20 13:30:42 2019


Pair  time (%) = 7.17625e-06 (3.50751)
Neigh time (%) = 0 (0)
Comm  time (%) = 2.04073e-05 (9.97439)
Outpt time (%) = 6.33707e-05 (30.9735)
Other time (%) = 0.000113642 (55.5446)

Nlocal:    0.5 ave 2 max 0 min
Histogram: 3 0 0 0 0 0 0 0 0 1
Nghost:    1.5 ave 2 max 0 min
Histogram: 1 0 0 0 0 0 0 0 0 3
Neighs:    0.25 ave 1 max 0 min
Histogram: 3 0 0 0 0 0 0 0 0 1

Total # of neighbors = 1
Ave neighs/atom = 0.5
Neighbor list builds = 0
Dangerous builds = 0
LIGGGHTS finished
nr particles = 2
evolve done.
DILUPBiCG:  Solving for Ux, Initial residual = 0.019247, Final residual = 8.14953e-08, No Iterations 2
DILUPBiCG:  Solving for Uy, Initial residual = 0.019247, Final residual = 8.14953e-08, No Iterations 2
DILUPBiCG:  Solving for Uz, Initial residual = 0.00106149, Final residual = 3.17516e-06, No Iterations 1
DICPCG:  Solving for p, Initial residual = 0.590277, Final residual = 8.17637e-07, No Iterations 68
time step continuity errors : sum local = 3.90248e-12, global = 2.08403e-19, cumulative = -4.28654e-18
DICPCG:  Solving for p, Initial residual = 0.133189, Final residual = 6.93678e-07, No Iterations 63
time step continuity errors : sum local = 1.38946e-12, global = 2.41084e-19, cumulative = -4.04546e-18
DICPCG:  Solving for p, Initial residual = 0.00599629, Final residual = 7.47111e-07, No Iterations 57
time step continuity errors : sum local = 1.37375e-12, global = 2.66693e-19, cumulative = -3.77876e-18
DICPCG:  Solving for p, Initial residual = 0.000520039, Final residual = 9.18448e-07, No Iterations 15
time step continuity errors : sum local = 1.69193e-12, global = 4.58418e-19, cumulative = -3.32034e-18
particleCloud.calcVelocityCorrection() 
DICPCG:  Solving for phiIB, Initial residual = 0.0268704, Final residual = 9.29951e-07, No Iterations 45
ExecutionTime = 2.94 s  ClockTime = 3 s

Time = 0.0087

Selected 0 cells for refinement out of 6296.
Selected 0 split points out of a possible 272.
Courant Number mean: 0.000123496 max: 0.0218285
- evolve()

 timeStepFraction() = 2
Starting up LIGGGHTS
Executing command: 'run 10    '
run 10    
Setting up run at Thu Jun 20 13:30:42 2019

Memory usage per processor = 53.8006 Mbytes
    Step    Atoms         KinEng            rke         Volume 
     281        2    0.014413198              0              4 
CFD Coupling established at step 290
     291        2    0.015239677              0              4 
Loop time of 0.00022969 on 4 procs for 10 steps with 2 atoms, finish time Thu Jun 20 13:30:43 2019


Pair  time (%) = 7.5575e-06 (3.29031)
Neigh time (%) = 0 (0)
Comm  time (%) = 3.26477e-05 (14.2138)
Outpt time (%) = 6.7047e-05 (29.1902)
Other time (%) = 0.000122438 (53.3056)

[...]

Memory usage per processor = 53.8006 Mbytes
    Step    Atoms         KinEng            rke         Volume 
    3251        2     0.30696137              0              4 
CFD Coupling established at step 3260
    3261        2     0.30794936              0              4 
Loop time of 0.000204444 on 4 procs for 10 steps with 2 atoms, finish time Thu Jun 20 13:31:29 2019


Pair  time (%) = 6.70575e-06 (3.27999)
Neigh time (%) = 0 (0)
Comm  time (%) = 2.20632e-05 (10.7918)
Outpt time (%) = 4.07823e-05 (19.9479)
Other time (%) = 0.000134893 (65.9803)

Nlocal:    0.5 ave 2 max 0 min
Histogram: 3 0 0 0 0 0 0 0 0 1
Nghost:    1.5 ave 2 max 0 min
Histogram: 1 0 0 0 0 0 0 0 0 3
Neighs:    0.25 ave 1 max 0 min
Histogram: 3 0 0 0 0 0 0 0 0 1

Total # of neighbors = 1
Ave neighs/atom = 0.5
Neighbor list builds = 0
Dangerous builds = 0
LIGGGHTS finished
nr particles = 2
evolve done.
DILUPBiCG:  Solving for Ux, Initial residual = 0.00835806, Final residual = 2.52908e-08, No Iterations 2
DILUPBiCG:  Solving for Uy, Initial residual = 0.00835862, Final residual = 2.53002e-08, No Iterations 2
DILUPBiCG:  Solving for Uz, Initial residual = 0.000545684, Final residual = 3.46513e-06, No Iterations 1
DICPCG:  Solving for p, Initial residual = 0.453165, Final residual = 5.29632e-07, No Iterations 67
time step continuity errors : sum local = 3.49726e-11, global = -9.31551e-19, cumulative = -3.16888e-18
DICPCG:  Solving for p, Initial residual = 0.0196021, Final residual = 9.71366e-07, No Iterations 58
time step continuity errors : sum local = 4.16314e-11, global = -5.61347e-19, cumulative = -3.73023e-18
DICPCG:  Solving for p, Initial residual = 0.00167107, Final residual = 8.8503e-07, No Iterations 32
time step continuity errors : sum local = 4.38649e-11, global = -7.76558e-19, cumulative = -4.50678e-18
DICPCG:  Solving for p, Initial residual = 0.000187425, Final residual = 9.16371e-07, No Iterations 12
time step continuity errors : sum local = 4.53079e-11, global = 1.59514e-19, cumulative = -4.34727e-18
particleCloud.calcVelocityCorrection() 
DICPCG:  Solving for phiIB, Initial residual = 0.0285226, Final residual = 6.00591e-07, No Iterations 44
ExecutionTime = 40.76 s  ClockTime = 50 s

Time = 0.0981

Selected 0 cells for refinement out of 6324.
Selected 20 split points out of a possible 272.
Unrefined from 6324 to 6184 cells.
Courant Number mean: 0.000944347 max: 0.115566
- evolve()

 timeStepFraction() = 2
Starting up LIGGGHTS
Executing command: 'run 10    '
run 10    
Setting up run at Thu Jun 20 13:31:29 2019

Memory usage per processor = 53.8006 Mbytes
    Step    Atoms         KinEng            rke         Volume 
    3261        2     0.30794936              0              4 
CFD Coupling established at step 3270
    3271        2     0.30931361              0              4 
Loop time of 0.000234849 on 4 procs for 10 steps with 2 atoms, finish time Thu Jun 20 13:31:29 2019


Pair  time (%) = 7.2725e-06 (3.09667)
Neigh time (%) = 0 (0)
Comm  time (%) = 2.26647e-05 (9.65076)
Outpt time (%) = 4.2e-05 (17.8838)
Other time (%) = 0.000162912 (69.3688)

Nlocal:    0.5 ave 2 max 0 min
Histogram: 3 0 0 0 0 0 0 0 0 1
Nghost:    1.5 ave 2 max 0 min
Histogram: 1 0 0 0 0 0 0 0 0 3
Neighs:    0.25 ave 1 max 0 min
Histogram: 3 0 0 0 0 0 0 0 0 1

Total # of neighbors = 1
Ave neighs/atom = 0.5
Neighbor list builds = 0
Dangerous builds = 0
LIGGGHTS finished
nr particles = 2
evolve done.
DILUPBiCG:  Solving for Ux, Initial residual = 0.00837041, Final residual = 2.61428e-08, No Iterations 2
DILUPBiCG:  Solving for Uy, Initial residual = 0.00837179, Final residual = 2.61419e-08, No Iterations 2
DILUPBiCG:  Solving for Uz, Initial residual = 0.000541072, Final residual = 1.98182e-06, No Iterations 1
DICPCG:  Solving for p, Initial residual = 0.443633, Final residual = 8.31685e-07, No Iterations 66
time step continuity errors : sum local = 5.50985e-11, global = -3.40351e-19, cumulative = -4.68762e-18
DICPCG:  Solving for p, Initial residual = 0.0183713, Final residual = 9.10739e-07, No Iterations 58
time step continuity errors : sum local = 4.04927e-11, global = 1.28646e-19, cumulative = -4.55897e-18
DICPCG:  Solving for p, Initial residual = 0.00140057, Final residual = 8.72209e-07, No Iterations 35
time step continuity errors : sum local = 4.69148e-11, global = -3.68618e-19, cumulative = -4.92759e-18
DICPCG:  Solving for p, Initial residual = 0.000142315, Final residual = 8.97663e-07, No Iterations 16
time step continuity errors : sum local = 4.79494e-11, global = 1.72809e-19, cumulative = -4.75478e-18
particleCloud.calcVelocityCorrection() 
DICPCG:  Solving for phiIB, Initial residual = 0.036698, Final residual = 7.86642e-07, No Iterations 45
ExecutionTime = 40.88 s  ClockTime = 50 s

Time = 0.0984

Selected 8 cells for refinement out of 6184.
Refined from 6184 to 6240 cells.
Selected 0 split points out of a possible 264.
Courant Number mean: 0.000955642 max: 0.115501
- evolve()

 timeStepFraction() = 2
Starting up LIGGGHTS
Executing command: 'run 10    '
run 10    
Setting up run at Thu Jun 20 13:31:29 2019

Memory usage per processor = 53.8006 Mbytes
    Step    Atoms         KinEng            rke         Volume 
    3271        2     0.30931361              0              4 
CFD Coupling established at step 3280
    3281        2     0.31022526              0              4 
Loop time of 0.000219309 on 4 procs for 10 steps with 2 atoms, finish time Thu Jun 20 13:31:29 2019


Pair  time (%) = 7.651e-06 (3.48868)
Neigh time (%) = 0 (0)
Comm  time (%) = 4.07715e-05 (18.5909)
Outpt time (%) = 5.6072e-05 (25.5675)
Other time (%) = 0.000114815 (52.353)

Nlocal:    0.5 ave 2 max 0 min
Histogram: 3 0 0 0 0 0 0 0 0 1
Nghost:    1.5 ave 2 max 0 min
Histogram: 1 0 0 0 0 0 0 0 0 3
Neighs:    0.25 ave 1 max 0 min
Histogram: 3 0 0 0 0 0 0 0 0 1

Total # of neighbors = 1
Ave neighs/atom = 0.5
Neighbor list builds = 0
Dangerous builds = 0
LIGGGHTS finished
nr particles = 2
evolve done.
DILUPBiCG:  Solving for Ux, Initial residual = 0.0086302, Final residual = 3.00805e-08, No Iterations 2
DILUPBiCG:  Solving for Uy, Initial residual = 0.00863178, Final residual = 3.00819e-08, No Iterations 2
DILUPBiCG:  Solving for Uz, Initial residual = 0.000572958, Final residual = 2.1363e-06, No Iterations 1
DICPCG:  Solving for p, Initial residual = 0.469685, Final residual = 5.66934e-07, No Iterations 67
time step continuity errors : sum local = 3.98546e-11, global = -3.79321e-19, cumulative = -5.1341e-18
DICPCG:  Solving for p, Initial residual = 0.0197487, Final residual = 9.22605e-07, No Iterations 59
time step continuity errors : sum local = 4.48459e-11, global = -2.65022e-19, cumulative = -5.39913e-18
DICPCG:  Solving for p, Initial residual = 0.0020068, Final residual = 8.91684e-07, No Iterations 39
time step continuity errors : sum local = 5.69967e-11, global = 7.04884e-19, cumulative = -4.69424e-18
DICPCG:  Solving for p, Initial residual = 0.00022506, Final residual = 7.69148e-07, No Iterations 30
time step continuity errors : sum local = 4.78948e-11, global = -2.73765e-19, cumulative = -4.96801e-18
particleCloud.calcVelocityCorrection() 
DICPCG:  Solving for phiIB, Initial residual = 0.0476268, Final residual = 7.99718e-07, No Iterations 47
ExecutionTime = 41.02 s  ClockTime = 50 s

Time = 0.0987

Selected 0 cells for refinement out of 6240.
Selected 5 split points out of a possible 264.
Unrefined from 6240 to 6205 cells.
Courant Number mean: 0.000955167 max: 0.115611
- evolve()

 timeStepFraction() = 2
Starting up LIGGGHTS
Executing command: 'run 10    '
run 10    
Setting up run at Thu Jun 20 13:31:29 2019

Memory usage per processor = 53.8006 Mbytes
    Step    Atoms         KinEng            rke         Volume 
    3281        2     0.31022526              0              4 
CFD Coupling established at step 3290
    3291        2     0.31123334              0              4 
Loop time of 0.000256398 on 4 procs for 10 steps with 2 atoms, finish time Thu Jun 20 13:31:29 2019


Pair  time (%) = 7.06875e-06 (2.75695)
Neigh time (%) = 0 (0)
Comm  time (%) = 5.27195e-05 (20.5616)
Outpt time (%) = 3.9044e-05 (15.2279)
Other time (%) = 0.000157565 (61.4535)

Nlocal:    0.5 ave 2 max 0 min
Histogram: 3 0 0 0 0 0 0 0 0 1
Nghost:    1.5 ave 2 max 0 min
Histogram: 1 0 0 0 0 0 0 0 0 3
Neighs:    0.25 ave 1 max 0 min
Histogram: 3 0 0 0 0 0 0 0 0 1

Total # of neighbors = 1
Ave neighs/atom = 0.5
Neighbor list builds = 0
Dangerous builds = 0
LIGGGHTS finished
nr particles = 2
evolve done.
DILUPBiCG:  Solving for Ux, Initial residual = 0.00844505, Final residual = 3.63535e-08, No Iterations 2
DILUPBiCG:  Solving for Uy, Initial residual = 0.00844763, Final residual = 3.63672e-08, No Iterations 2
DILUPBiCG:  Solving for Uz, Initial residual = 0.000579936, Final residual = 2.54766e-06, No Iterations 1
DICPCG:  Solving for p, Initial residual = 0.46949, Final residual = 9.91798e-07, No Iterations 66
time step continuity errors : sum local = 7.08246e-11, global = -1.4393e-19, cumulative = -5.11194e-18
DICPCG:  Solving for p, Initial residual = 0.0236835, Final residual = 7.58789e-07, No Iterations 61
time step continuity errors : sum local = 3.27888e-11, global = 4.98717e-20, cumulative = -5.06207e-18
DICPCG:  Solving for p, Initial residual = 0.00180563, Final residual = 8.96733e-07, No Iterations 34
time step continuity errors : sum local = 4.42588e-11, global = 2.13111e-19, cumulative = -4.84896e-18
DICPCG:  Solving for p, Initial residual = 0.00017526, Final residual = 9.41641e-07, No Iterations 29
time step continuity errors : sum local = 4.84195e-11, global = -4.84877e-19, cumulative = -5.33383e-18
particleCloud.calcVelocityCorrection() 
DICPCG:  Solving for phiIB, Initial residual = 0.0278367, Final residual = 8.07778e-07, No Iterations 46
ExecutionTime = 41.15 s  ClockTime = 50 s

Time = 0.099

Selected 16 cells for refinement out of 6205.
Refined from 6205 to 6317 cells.
Selected 0 split points out of a possible 267.
Courant Number mean: 0.000969065 max: 0.115705
- evolve()

 timeStepFraction() = 2
Starting up LIGGGHTS
Executing command: 'run 10    '
run 10    
Setting up run at Thu Jun 20 13:31:29 2019

Memory usage per processor = 53.8006 Mbytes
    Step    Atoms         KinEng            rke         Volume 
    3291        2     0.31123334              0              4 
CFD Coupling established at step 3300
    3301        2     0.31068337              0              4 
Loop time of 0.000350865 on 4 procs for 10 steps with 2 atoms, finish time Thu Jun 20 13:31:30 2019


Pair  time (%) = 9.43425e-06 (2.68886)
Neigh time (%) = 0 (0)
Comm  time (%) = 2.40115e-05 (6.84352)
Outpt time (%) = 5.3158e-05 (15.1506)
Other time (%) = 0.000264261 (75.3171)

Nlocal:    0.5 ave 2 max 0 min
Histogram: 3 0 0 0 0 0 0 0 0 1
Nghost:    1.5 ave 2 max 0 min
Histogram: 1 0 0 0 0 0 0 0 0 3
Neighs:    0.25 ave 1 max 0 min
Histogram: 3 0 0 0 0 0 0 0 0 1

Total # of neighbors = 1
Ave neighs/atom = 0.5
Neighbor list builds = 0
Dangerous builds = 0
LIGGGHTS finished
nr particles = 2
evolve done.
DILUPBiCG:  Solving for Ux, Initial residual = 0.00828248, Final residual = 3.19172e-08, No Iterations 2
DILUPBiCG:  Solving for Uy, Initial residual = 0.0082853, Final residual = 3.19229e-08, No Iterations 2
DILUPBiCG:  Solving for Uz, Initial residual = 0.00057055, Final residual = 2.69724e-06, No Iterations 1
DICPCG:  Solving for p, Initial residual = 0.47487, Final residual = 9.31157e-07, No Iterations 66
time step continuity errors : sum local = 6.65609e-11, global = 2.26134e-19, cumulative = -5.1077e-18
DICPCG:  Solving for p, Initial residual = 0.0189129, Final residual = 8.48692e-07, No Iterations 58
time step continuity errors : sum local = 4.14252e-11, global = -7.25295e-19, cumulative = -5.83299e-18
DICPCG:  Solving for p, Initial residual = 0.00155496, Final residual = 8.6515e-07, No Iterations 28
time step continuity errors : sum local = 4.48923e-11, global = 6.17008e-20, cumulative = -5.77129e-18
DICPCG:  Solving for p, Initial residual = 0.000176649, Final residual = 8.93636e-07, No Iterations 26
time step continuity errors : sum local = 4.45604e-11, global = -2.2955e-19, cumulative = -6.00084e-18
particleCloud.calcVelocityCorrection() 
DICPCG:  Solving for phiIB, Initial residual = 0.0468496, Final residual = 7.17785e-07, No Iterations 47
ExecutionTime = 41.37 s  ClockTime = 51 s

Time = 0.0993

Selected 5 cells for refinement out of 6317.
Refined from 6317 to 6352 cells.
Selected 0 split points out of a possible 272.
Courant Number mean: 0.000973516 max: 0.115809
- evolve()

 timeStepFraction() = 2
Starting up LIGGGHTS
Executing command: 'run 10    '
run 10    
Setting up run at Thu Jun 20 13:31:30 2019

Memory usage per processor = 53.8006 Mbytes
    Step    Atoms         KinEng            rke         Volume 
    3301        2     0.31068337              0              4 
CFD Coupling established at step 3310
    3311        2     0.31155371              0              4 
Loop time of 0.000200166 on 4 procs for 10 steps with 2 atoms, finish time Thu Jun 20 13:31:30 2019


Pair  time (%) = 7.926e-06 (3.95972)
Neigh time (%) = 0 (0)
Comm  time (%) = 2.2858e-05 (11.4195)
Outpt time (%) = 4.25128e-05 (21.2388)
Other time (%) = 0.000126869 (63.382)

Nlocal:    0.5 ave 2 max 0 min
Histogram: 3 0 0 0 0 0 0 0 0 1
Nghost:    1.5 ave 2 max 0 min
Histogram: 1 0 0 0 0 0 0 0 0 3
Neighs:    0.25 ave 1 max 0 min
Histogram: 3 0 0 0 0 0 0 0 0 1

Total # of neighbors = 1
Ave neighs/atom = 0.5
Neighbor list builds = 0
Dangerous builds = 0
LIGGGHTS finished
nr particles = 2
evolve done.
DILUPBiCG:  Solving for Ux, Initial residual = 0.00860121, Final residual = 6.48604e-08, No Iterations 2
DILUPBiCG:  Solving for Uy, Initial residual = 0.00860301, Final residual = 6.482e-08, No Iterations 2
DILUPBiCG:  Solving for Uz, Initial residual = 0.000555598, Final residual = 2.00378e-06, No Iterations 1
DICPCG:  Solving for p, Initial residual = 0.487091, Final residual = 8.81766e-07, No Iterations 66
time step continuity errors : sum local = 6.41557e-11, global = -1.20796e-19, cumulative = -6.12164e-18
DICPCG:  Solving for p, Initial residual = 0.0224318, Final residual = 9.80751e-07, No Iterations 59
time step continuity errors : sum local = 4.25479e-11, global = -9.40477e-19, cumulative = -7.06212e-18
DICPCG:  Solving for p, Initial residual = 0.00171458, Final residual = 8.9326e-07, No Iterations 36
time step continuity errors : sum local = 5.1286e-11, global = -2.49248e-19, cumulative = -7.31136e-18
DICPCG:  Solving for p, Initial residual = 0.000194021, Final residual = 8.36227e-07, No Iterations 30
time step continuity errors : sum local = 4.60061e-11, global = -9.69076e-19, cumulative = -8.28044e-18
particleCloud.calcVelocityCorrection() 
DICPCG:  Solving for phiIB, Initial residual = 0.0294387, Final residual = 5.48853e-07, No Iterations 47
ExecutionTime = 41.52 s  ClockTime = 51 s

Time = 0.0996

Selected 0 cells for refinement out of 6352.
Selected 16 split points out of a possible 272.
Unrefined from 6352 to 6240 cells.
Courant Number mean: 0.000962144 max: 0.115859
- evolve()

 timeStepFraction() = 2
Starting up LIGGGHTS
Executing command: 'run 10    '
run 10    
Setting up run at Thu Jun 20 13:31:30 2019

Memory usage per processor = 53.8006 Mbytes
    Step    Atoms         KinEng            rke         Volume 
    3311        2     0.31155371              0              4 
CFD Coupling established at step 3320
    3321        2     0.31277233              0              4 
Loop time of 0.000209847 on 4 procs for 10 steps with 2 atoms, finish time Thu Jun 20 13:31:30 2019


Pair  time (%) = 6.89375e-06 (3.28514)
Neigh time (%) = 0 (0)
Comm  time (%) = 3.95755e-05 (18.8592)
Outpt time (%) = 4.00442e-05 (19.0826)
Other time (%) = 0.000123333 (58.773)

Nlocal:    0.5 ave 2 max 0 min
Histogram: 3 0 0 0 0 0 0 0 0 1
Nghost:    1.5 ave 2 max 0 min
Histogram: 1 0 0 0 0 0 0 0 0 3
Neighs:    0.25 ave 1 max 0 min
Histogram: 3 0 0 0 0 0 0 0 0 1

Total # of neighbors = 1
Ave neighs/atom = 0.5
Neighbor list builds = 0
Dangerous builds = 0
LIGGGHTS finished
nr particles = 2
evolve done.
DILUPBiCG:  Solving for Ux, Initial residual = 0.00787298, Final residual = 2.56387e-08, No Iterations 2
DILUPBiCG:  Solving for Uy, Initial residual = 0.00787365, Final residual = 2.56421e-08, No Iterations 2
DILUPBiCG:  Solving for Uz, Initial residual = 0.000550232, Final residual = 3.89754e-06, No Iterations 1
DICPCG:  Solving for p, Initial residual = 0.467945, Final residual = 5.91165e-07, No Iterations 67
time step continuity errors : sum local = 4.08124e-11, global = -6.60428e-19, cumulative = -8.94087e-18
DICPCG:  Solving for p, Initial residual = 0.0170379, Final residual = 6.61905e-07, No Iterations 59
time step continuity errors : sum local = 2.97977e-11, global = -1.32377e-18, cumulative = -1.02646e-17
DICPCG:  Solving for p, Initial residual = 0.00110637, Final residual = 8.07317e-07, No Iterations 35
time step continuity errors : sum local = 4.41454e-11, global = -7.88152e-19, cumulative = -1.10528e-17
DICPCG:  Solving for p, Initial residual = 9.53349e-05, Final residual = 8.80033e-07, No Iterations 11
time step continuity errors : sum local = 4.73607e-11, global = -3.9424e-19, cumulative = -1.1447e-17
particleCloud.calcVelocityCorrection() 
DICPCG:  Solving for phiIB, Initial residual = 0.0335588, Final residual = 6.88566e-07, No Iterations 46
ExecutionTime = 41.68 s  ClockTime = 51 s

Time = 0.0999

Selected 8 cells for refinement out of 6240.
Refined from 6240 to 6296 cells.
Selected 0 split points out of a possible 272.
Courant Number mean: 0.00096647 max: 0.11619
- evolve()

 timeStepFraction() = 2
Starting up LIGGGHTS
Executing command: 'run 10    '
run 10    
Setting up run at Thu Jun 20 13:31:30 2019

Memory usage per processor = 53.8006 Mbytes
    Step    Atoms         KinEng            rke         Volume 
    3321        2     0.31277233              0              4 
CFD Coupling established at step 3330
    3331        2     0.31418717              0              4 
Loop time of 0.000480524 on 4 procs for 10 steps with 2 atoms, finish time Thu Jun 20 13:31:30 2019


Pair  time (%) = 8.07525e-06 (1.68051)
Neigh time (%) = 0 (0)
Comm  time (%) = 9.63875e-05 (20.0588)
Outpt time (%) = 5.2769e-05 (10.9815)
Other time (%) = 0.000323292 (67.2791)

Nlocal:    0.5 ave 2 max 0 min
Histogram: 3 0 0 0 0 0 0 0 0 1
Nghost:    1.5 ave 2 max 0 min
Histogram: 1 0 0 0 0 0 0 0 0 3
Neighs:    0.25 ave 1 max 0 min
Histogram: 3 0 0 0 0 0 0 0 0 1

Total # of neighbors = 1
Ave neighs/atom = 0.5
Neighbor list builds = 0
Dangerous builds = 0
LIGGGHTS finished
nr particles = 2
evolve done.
DILUPBiCG:  Solving for Ux, Initial residual = 0.00800294, Final residual = 2.95532e-08, No Iterations 2
DILUPBiCG:  Solving for Uy, Initial residual = 0.00800285, Final residual = 2.95817e-08, No Iterations 2
DILUPBiCG:  Solving for Uz, Initial residual = 0.000554224, Final residual = 6.47608e-06, No Iterations 1
DICPCG:  Solving for p, Initial residual = 0.468459, Final residual = 9.36315e-07, No Iterations 66
time step continuity errors : sum local = 6.5537e-11, global = -6.80257e-19, cumulative = -1.21273e-17
DICPCG:  Solving for p, Initial residual = 0.0179419, Final residual = 8.55948e-07, No Iterations 58
time step continuity errors : sum local = 3.82862e-11, global = -5.42962e-19, cumulative = -1.26703e-17
DICPCG:  Solving for p, Initial residual = 0.00133316, Final residual = 8.8291e-07, No Iterations 35
time step continuity errors : sum local = 4.26303e-11, global = -3.8379e-20, cumulative = -1.27086e-17
DICPCG:  Solving for p, Initial residual = 0.000127574, Final residual = 9.57589e-07, No Iterations 12
time step continuity errors : sum local = 4.59281e-11, global = -7.93157e-19, cumulative = -1.35018e-17
particleCloud.calcVelocityCorrection() 
DICPCG:  Solving for phiIB, Initial residual = 0.030349, Final residual = 5.90915e-07, No Iterations 46
ExecutionTime = 41.83 s  ClockTime = 51 s

End

Finalising parallel run
