
//   run_parallel_cfdemSolverPisoScalar_packedBedTemp_CFDDEM   //

/home/tsimur/CFDEM/TEST/4/packedBedTemp/CFD

/*---------------------------------------------------------------------------*\
| =========                 |                                                 |
| \\      /  F ield         | OpenFOAM: The Open Source CFD Toolbox           |
|  \\    /   O peration     | Version:  5.x                                   |
|   \\  /    A nd           | Web:      www.OpenFOAM.org                      |
|    \\/     M anipulation  |                                                 |
\*---------------------------------------------------------------------------*/
Build  : 5.x-538044ac05c4
Exec   : cfdemSolverPisoScalar -parallel
Date   : Dec 04 2018
Time   : 22:13:34
Host   : "tsimur"
PID    : 15010
I/O    : uncollated
Case   : /home/tsimur/CFDEM/TEST/4/packedBedTemp/CFD
nProcs : 2
Slaves : 1("tsimur.15011")
Pstream initialized with:
    floatTransfer      : 0
    nProcsSimpleSum    : 0
    commsType          : nonBlocking
    polling iterations : 0
sigFpe : Enabling floating point exception trapping (FOAM_SIGFPE).
fileModificationChecking : Monitoring run-time modified files using timeStampMaster (fileModificationSkew 10)
allowSystemOperations : Allowing user-supplied system call operations

// * * * * * * * * * * * * * * * * * * * * * * * * * * * * * * * * * * * * * //
Create time

Create mesh for time = 0


PISO: Operating solver in PISO mode

Reading field p

Reading physical velocity field U
Note: only if voidfraction at boundary is 1, U is superficial velocity!!!


Reading momentum exchange field Ksl


Reading voidfraction field voidfraction = (Vgas/Vparticle)


Creating density field rho

Reading particle velocity field Us


Creating T field


Creating fluid-particle heat flux field

Reading field alphat

Reading/calculating face flux field phi

Generating interstitial face flux field phiByVoidfraction

Selecting incompressible transport model Newtonian
Selecting turbulence model type RAS
Selecting RAS turbulence model kEpsilon
RAS
{
    RASModel        kEpsilon;
    turbulence      on;
    printCoeffs     on;
    Cmu             0.09;
    C1              1.44;
    C2              1.92;
    C3              0;
    sigmak          1;
    sigmaEps        1.3;
}

Radiation model not active: radiationProperties not found
Selecting radiationModel none

Reading g
Selecting locateModel engine
Selecting dataExchangeModel twoWayMPI
Starting up LIGGGHTS for first time execution
Executing input script '../DEM/in.liggghts_run'
LIGGGHTS (Version LIGGGHTS-PUBLIC 3.8.0, compiled 2018-11-28-21:57:47 by root, git commit 28301df8853491784b1d8b90533ea89b8c6af1e8)
log             ../DEM/log.liggghts
thermo_log      ../DEM/post/thermo.txt

#######################################################
# variables                                           #
#######################################################
variable r0 equal 0.011
#######################################################

# read packed bed and calc convective heat transfer
atom_style      granular
atom_modify     map array
boundary        m m m
newton          off

communicate     single vel yes

units           si
processors      1 1 2

# read the restart file
read_restart    ../DEM/post/restart/liggghts.restart
Reading restart file ...
version 3 8
version 3 8
  orthogonal box = (0 0 0) to (0.1 0.1 1.1)
  1 by 1 by 2 MPI processor grid
  1005 atoms

neighbor        ${r0} bin
neighbor        0.011 bin
neigh_modify    delay 0 binsize 0.01


# Material properties required for granular pair styles

fix         m1 all property/global youngsModulus peratomtype 5.e6
fix         m2 all property/global poissonsRatio peratomtype 0.45
fix         m3 all property/global coefficientRestitution peratomtypepair 1 0.3
fix         m4 all property/global coefficientFriction peratomtypepair 1 0.5

# pair style
pair_style  gran model hertz tangential history
pair_coeff  * *

# timestep, gravity
timestep    0.00001
fix         gravi all gravity 9.81 vector 0. 0. -1.

# walls
fix     xwalls1 all wall/gran model hertz tangential history primitive type 1 xplane 0.0
Resetting global state of Fix history_xwalls1 Style property/atom from restart file info
Resetting per-atom state of Fix history_xwalls1 Style property/atom from restart file info
fix     xwalls2 all wall/gran model hertz tangential history primitive type 1 xplane 0.1
Resetting global state of Fix history_xwalls2 Style property/atom from restart file info
Resetting per-atom state of Fix history_xwalls2 Style property/atom from restart file info
fix     ywalls1 all wall/gran model hertz tangential history primitive type 1 yplane 0.0
Resetting global state of Fix history_ywalls1 Style property/atom from restart file info
Resetting per-atom state of Fix history_ywalls1 Style property/atom from restart file info
fix     ywalls2 all wall/gran model hertz tangential history primitive type 1 yplane 0.1
Resetting global state of Fix history_ywalls2 Style property/atom from restart file info
Resetting per-atom state of Fix history_ywalls2 Style property/atom from restart file info
fix     zwalls1 all wall/gran model hertz tangential history primitive type 1 zplane 0.0
Resetting global state of Fix history_zwalls1 Style property/atom from restart file info
Resetting per-atom state of Fix history_zwalls1 Style property/atom from restart file info
fix     zwalls2 all wall/gran model hertz tangential history primitive type 1 zplane 1.1
Resetting global state of Fix history_zwalls2 Style property/atom from restart file info
Resetting per-atom state of Fix history_zwalls2 Style property/atom from restart file info

# cfd coupling
fix         cfd all couple/cfd couple_every 100 mpi
couple_every as specified in LIGGGHTS is overriden by calling external program (../fix_cfd_coupling.cpp:114)
fix         cfd2 all couple/cfd/force


# heat transfer
fix         ftco all property/global thermalConductivity peratomtype 5. # lambda in [W/(K*m)]
fix         ftca all property/global thermalCapacity peratomtype 0.1    # cp in [J/(kg*K)]
fix         cfd3 all couple/cfd/convection T0 600
Resetting global state of Fix Temp Style property/atom from restart file info
Resetting per-atom state of Fix Temp Style property/atom from restart file info
Resetting global state of Fix heatFlux Style property/atom from restart file info
Resetting per-atom state of Fix heatFlux Style property/atom from restart file info
Resetting global state of Fix heatSource Style property/atom from restart file info
Resetting per-atom state of Fix heatSource Style property/atom from restart file info
fix         heattransfer all heat/gran initial_temperature 600.

# set particle temperature for the bed
run         0
Resetting global state of Fix contacthistory Style contacthistory from restart file info
Resetting per-atom state of Fix contacthistory Style contacthistory from restart file info
Setting up run at Tue Dec  4 22:13:34 2018

Memory usage per processor = 9.13458 Mbytes
    Step    Atoms         KinEng            CPU         Volume 
  150001     1005  2.3338009e-06              0          0.011 
Loop time of 3.7365e-06 on 2 procs for 0 steps with 1005 atoms, finish time Tue Dec  4 22:13:34 2018


Pair  time (%) = 0 (0)
Neigh time (%) = 0 (0)
Comm  time (%) = 0 (0)
Outpt time (%) = 0 (0)
Other time (%) = 3.7365e-06 (100)

Nlocal:    502.5 ave 547 max 458 min
Histogram: 1 0 0 0 0 0 0 0 0 1
Nghost:    32 ave 34 max 30 min
Histogram: 1 0 0 0 0 0 0 0 0 1
Neighs:    2842 ave 3107 max 2577 min
Histogram: 1 0 0 0 0 0 0 0 0 1

Total # of neighbors = 5684
Ave neighs/atom = 5.65572
Neighbor list builds = 0
Dangerous builds = 0
region      total block INF INF INF INF INF INF units box
set         region total property/atom Temp 600.
Setting atom values ...
  1005 settings made for property/atom

# apply nve integration to all particles that are inserted as single particles
fix         integr all nve/sphere

# output settings, include total thermal energy
compute         rke all erotate/sphere
thermo_style    custom step atoms ke c_rke f_heattransfer vol
thermo          1000
thermo_modify   lost ignore norm no
compute_modify  thermo_temp dynamic yes
WARNING: Changing thermo_temp compute object. This object is deprecated and will be removed in the future. (../compute.cpp:161)

dump        dmp all custom 20000 ../DEM/post/dump*.liggghts_run id type x y z ix iy iz vx vy vz fx fy fz omegax omegay omegaz radius f_Temp[0] f_heatFlux[0]

run         0
Setting up run at Tue Dec  4 22:13:34 2018

Memory usage per processor = 9.13486 Mbytes
    Step    Atoms         KinEng            rke       heattran         Volume 
  150001     1005  2.3338009e-06    5.06343e-06      840.47342          0.011 
Loop time of 2.60901e-06 on 2 procs for 0 steps with 1005 atoms, finish time Tue Dec  4 22:13:34 2018


Pair  time (%) = 0 (0)
Neigh time (%) = 0 (0)
Comm  time (%) = 0 (0)
Outpt time (%) = 0 (0)
Other time (%) = 2.60901e-06 (100)

Nlocal:    502.5 ave 547 max 458 min
Histogram: 1 0 0 0 0 0 0 0 0 1
Nghost:    32 ave 34 max 30 min
Histogram: 1 0 0 0 0 0 0 0 0 1
Neighs:    2842 ave 3107 max 2577 min
Histogram: 1 0 0 0 0 0 0 0 0 1

Total # of neighbors = 5684
Ave neighs/atom = 5.65572
Neighbor list builds = 0
Dangerous builds = 0
Selecting IOModel basicIO
Selecting probeModel off
Selecting voidFractionModel divided
Selecting averagingModel dense
Selecting clockModel off
start clock measurement at t >0.01
Selecting smoothingModel off
Selecting meshMotionModel noMeshMotion

CFDEMcoupling version: cfdem-3.8.1
, compatible to LIGGGHTS version: 3.8.0
, compatible to OF version and build: 5.x-commit-538044ac05c4672b37c7df607dca1116fa88df88

You are currently using:
OF version: 5.x
OF build: 5.x-538044ac05c4
CFDEM build: 3.8.0-3-gb237264

cg is set to: 1
LIGGGHTS hosts 1 atom types.
If BC are important, please provide volScalarFields -imp/expParticleForces-
ignoring ddt(voidfraction)
Selecting momCoupleModel implicitCouple

implicit momentum exchange field calculate if alphaP larger than : 1
Selecting forceModel KochHillDrag
 Selecting forceSubModel ImEx
 reading switches:
  looking for treatForceExplicit ...  not found in dict, using default. treatForceExplicit = false
  looking for implForceDEM ...  not found in dict, using default. implForceDEM = false
  looking for verbose ...  not found in dict, using default. verbose = false
  looking for interpolation ...  not found in dict, using default. interpolation = false
  looking for implForceDEMaccumulated ...  not found in dict, using default. implForceDEMaccumulated = false
  looking for scalarViscosity ...  not found in dict, using default. scalarViscosity = false

Selecting forceModel LaEuScalarTemp
 Selecting forceSubModel ImEx
 reading switches:
  looking for verbose ...  not found in dict, using default. verbose = false
  looking for interpolation ...  not found in dict, using default. interpolation = false
  looking for scalarViscosity ...  not found in dict, using default. scalarViscosity = false

Selecting forceModel Archimedes
 Selecting forceSubModel ImEx
 reading switches:
  looking for verbose ...  not found in dict, using default. verbose = false

Selecting liggghtsCommandModel runLiggghts ,provide dicts, numbered from 0 to n
Selecting liggghtsCommandModel execute ,provide dicts, numbered from 0 to n
liggghtsCommand set region total property/atom Temp 600.000000 
solving volume averaged Navier Stokes equations of type B


Starting time loop

--> FOAM Warning : 
    From function void Foam::timeControl::read(const Foam::dictionary&)
    in file db/functionObjects/timeControl/timeControl.C at line 89
    Reading "/home/tsimur/CFDEM/TEST/4/packedBedTemp/CFD/system/controlDict.functions.probes" from line 61 to line 77
    Using deprecated 'outputControl'
    Please use 'writeControl' with 'writeInterval'
--> FOAM Warning : 
    From function void Foam::timeControl::read(const Foam::dictionary&)
    in file db/functionObjects/timeControl/timeControl.C at line 89
    Reading "/home/tsimur/CFDEM/TEST/4/packedBedTemp/CFD/system/controlDict.functions.volFlow_inlet" from line 82 to line 95
    Using deprecated 'outputControl'
    Please use 'writeControl' with 'writeInterval'
surfaceFieldValue volFlow_inlet:
    total faces  = 4
    total area   = 0.01


--> FOAM Warning : 
    From function void Foam::timeControl::read(const Foam::dictionary&)
    in file db/functionObjects/timeControl/timeControl.C at line 89
    Reading "/home/tsimur/CFDEM/TEST/4/packedBedTemp/CFD/system/controlDict.functions.volFlow_outlet" from line 100 to line 113
    Using deprecated 'outputControl'
    Please use 'writeControl' with 'writeInterval'
surfaceFieldValue volFlow_outlet:
    total faces  = 4
    total area   = 0.01


--> FOAM Warning : 
    From function void Foam::timeControl::read(const Foam::dictionary&)
    in file db/functionObjects/timeControl/timeControl.C at line 89
    Reading "/home/tsimur/CFDEM/TEST/4/packedBedTemp/CFD/system/controlDict.functions.volFlow_wall" from line 118 to line 131
    Using deprecated 'outputControl'
    Please use 'writeControl' with 'writeInterval'
surfaceFieldValue volFlow_wall:
    total faces  = 264
    total area   = 0.8


Time = 0.005

Courant Number mean: 0.00133125 max: 0.0412913

 Coupling...
Starting up LIGGGHTS
Executing command: 'run 500    '
run 500    
Setting up run at Tue Dec  4 22:13:34 2018

Memory usage per processor = 9.13486 Mbytes
    Step    Atoms         KinEng            rke       heattran         Volume 
  150001     1005  2.3338009e-06    5.06343e-06      840.47342          0.011 
CFD Coupling established at step 150100
CFD Coupling established at step 150200
CFD Coupling established at step 150300
CFD Coupling established at step 150400
CFD Coupling established at step 150500
  150501     1005  2.4508543e-06  5.7530481e-06      840.47342          0.011 
Loop time of 0.173494 on 2 procs for 500 steps with 1005 atoms, finish time Tue Dec  4 22:13:35 2018


Pair  time (%) = 0.0787794 (45.4076)
Neigh time (%) = 0 (0)
Comm  time (%) = 0.0368302 (21.2286)
Outpt time (%) = 4.03795e-05 (0.0232743)
Other time (%) = 0.0578437 (33.3405)

Nlocal:    502.5 ave 547 max 458 min
Histogram: 1 0 0 0 0 0 0 0 0 1
Nghost:    32 ave 34 max 30 min
Histogram: 1 0 0 0 0 0 0 0 0 1
Neighs:    2842 ave 3107 max 2577 min
Histogram: 1 0 0 0 0 0 0 0 0 1

Total # of neighbors = 5684
Ave neighs/atom = 5.65572
Neighbor list builds = 0
Dangerous builds = 0
Executing command: 'set region total property/atom Temp 600.000000 '
set region total property/atom Temp 600.000000 
Setting atom values ...
  1005 settings made for property/atom
LIGGGHTS finished

 timeStepFraction() = 1
update Ksl.internalField()

Solver level total Eulerian momentum exchange:
  TotalForceImp:  (-0.000322892 -2.20854e-05 -0.00999484)
  Warning, these values are based on latest Ksl and Us but prev. iteration U!

total convective particle-fluid heat flux [W] (Eulerian) = 1210.52
DILUPBiCG:  Solving for T, Initial residual = 1, Final residual = 7.63298e-10, No Iterations 2
DILUPBiCG:  Solving for Ux, Initial residual = 1, Final residual = 1.72108e-06, No Iterations 1
DILUPBiCG:  Solving for Uy, Initial residual = 1, Final residual = 2.52125e-06, No Iterations 1
DILUPBiCG:  Solving for Uz, Initial residual = 1, Final residual = 1.05507e-08, No Iterations 2
DICPCG:  Solving for p, Initial residual = 1, Final residual = 0.0216396, No Iterations 22
time step continuity errors : sum local = 5.41579e-05, global = -2.5358e-06, cumulative = -2.5358e-06
DICPCG:  Solving for p, Initial residual = 0.00016929, Final residual = 8.17949e-06, No Iterations 21
time step continuity errors : sum local = 7.25756e-06, global = 8.84378e-08, cumulative = -2.44736e-06
DICPCG:  Solving for p, Initial residual = 8.25318e-06, Final residual = 7.90073e-07, No Iterations 2
time step continuity errors : sum local = 6.98239e-07, global = -9.40251e-09, cumulative = -2.45677e-06
DICPCG:  Solving for p, Initial residual = 7.86625e-07, Final residual = 7.86625e-07, No Iterations 0
time step continuity errors : sum local = 6.95191e-07, global = -9.35172e-09, cumulative = -2.46612e-06
No finite volume options present

DILUPBiCG:  Solving for epsilon, Initial residual = 0, Final residual = 0, No Iterations 0
DILUPBiCG:  Solving for k, Initial residual = 1, Final residual = 7.0654e-07, No Iterations 3
ExecutionTime = 0.2 s  ClockTime = 1 s

Time = 0.01

Courant Number mean: 0.0851037 max: 0.110024

 Coupling...
Starting up LIGGGHTS
Executing command: 'run 500    '
run 500    
Setting up run at Tue Dec  4 22:13:35 2018

Memory usage per processor = 9.13486 Mbytes
    Step    Atoms         KinEng            rke       heattran         Volume 
  150501     1005  2.4508543e-06  5.7530481e-06      840.47342          0.011 
CFD Coupling established at step 150600
CFD Coupling established at step 150700
CFD Coupling established at step 150800
CFD Coupling established at step 150900
CFD Coupling established at step 151000
  151000     1005  1.5464602e-06  5.4802738e-06      834.43291          0.011 
  151001     1005  1.5449898e-06  5.4805876e-06       834.4208          0.011 
Loop time of 0.154021 on 2 procs for 500 steps with 1005 atoms, finish time Tue Dec  4 22:13:35 2018


Pair  time (%) = 0.0725731 (47.119)
Neigh time (%) = 0 (0)
Comm  time (%) = 0.0284549 (18.4747)
Outpt time (%) = 8.7766e-05 (0.0569832)
Other time (%) = 0.0529051 (34.3493)

Nlocal:    502.5 ave 547 max 458 min
Histogram: 1 0 0 0 0 0 0 0 0 1
Nghost:    32 ave 34 max 30 min
Histogram: 1 0 0 0 0 0 0 0 0 1
Neighs:    2841.5 ave 3107 max 2576 min
Histogram: 1 0 0 0 0 0 0 0 0 1

Total # of neighbors = 5683
Ave neighs/atom = 5.65473
Neighbor list builds = 0
Dangerous builds = 0
Executing command: 'set region total property/atom Temp 600.000000 '
set region total property/atom Temp 600.000000 
Setting atom values ...
  1005 settings made for property/atom
LIGGGHTS finished

 timeStepFraction() = 1
update Ksl.internalField()

Solver level total Eulerian momentum exchange:
  TotalForceImp:  (0.0131216 -0.0412771 -24.2855)
  Warning, these values are based on latest Ksl and Us but prev. iteration U!

total convective particle-fluid heat flux [W] (Eulerian) = 1735.44
DILUPBiCG:  Solving for T, Initial residual = 0.31731, Final residual = 3.61619e-08, No Iterations 4
DILUPBiCG:  Solving for Ux, Initial residual = 0.0340186, Final residual = 9.69782e-08, No Iterations 2
DILUPBiCG:  Solving for Uy, Initial residual = 0.0355486, Final residual = 4.2748e-07, No Iterations 2
DILUPBiCG:  Solving for Uz, Initial residual = 0.230645, Final residual = 1.30567e-06, No Iterations 2
DICPCG:  Solving for p, Initial residual = 0.0100613, Final residual = 0.000874079, No Iterations 13
time step continuity errors : sum local = 0.00074541, global = 4.85276e-05, cumulative = 4.60615e-05
DICPCG:  Solving for p, Initial residual = 0.00126501, Final residual = 8.96144e-05, No Iterations 17
time step continuity errors : sum local = 7.47467e-05, global = -1.43078e-05, cumulative = 3.17536e-05
DICPCG:  Solving for p, Initial residual = 0.000106606, Final residual = 8.74474e-06, No Iterations 8
time step continuity errors : sum local = 6.97852e-06, global = -7.94518e-07, cumulative = 3.09591e-05
DICPCG:  Solving for p, Initial residual = 9.15899e-06, Final residual = 5.98876e-07, No Iterations 21
time step continuity errors : sum local = 4.78124e-07, global = 1.68114e-08, cumulative = 3.09759e-05
DILUPBiCG:  Solving for epsilon, Initial residual = 0, Final residual = 0, No Iterations 0
DILUPBiCG:  Solving for k, Initial residual = 0.990741, Final residual = 3.11455e-07, No Iterations 3
ExecutionTime = 0.37 s  ClockTime = 1 s

Time = 0.015

Courant Number mean: 0.0853651 max: 0.11244

 Coupling...
Starting up LIGGGHTS
Executing command: 'run 500    '
run 500    
Setting up run at Tue Dec  4 22:13:35 2018

Memory usage per processor = 9.13486 Mbytes
    Step    Atoms         KinEng            rke       heattran         Volume 
  151001     1005  1.5449898e-06  5.4805876e-06      840.47342          0.011 
CFD Coupling established at step 151100
CFD Coupling established at step 151200
CFD Coupling established at step 151300
CFD Coupling established at step 151400
CFD Coupling established at step 151500
  151501     1005  0.00013942823  1.9062327e-05      831.79622          0.011 
Loop time of 0.150518 on 2 procs for 500 steps with 1005 atoms, finish time Tue Dec  4 22:13:35 2018


Pair  time (%) = 0.0678645 (45.0874)
Neigh time (%) = 0 (0)
Comm  time (%) = 0.0260752 (17.3237)
Outpt time (%) = 3.1176e-05 (0.0207125)
Other time (%) = 0.0565468 (37.5682)

Nlocal:    502.5 ave 547 max 458 min
Histogram: 1 0 0 0 0 0 0 0 0 1
Nghost:    32 ave 34 max 30 min
Histogram: 1 0 0 0 0 0 0 0 0 1
Neighs:    2841.5 ave 3107 max 2576 min
Histogram: 1 0 0 0 0 0 0 0 0 1

Total # of neighbors = 5683
Ave neighs/atom = 5.65473
Neighbor list builds = 0
Dangerous builds = 0
Executing command: 'set region total property/atom Temp 600.000000 '
set region total property/atom Temp 600.000000 
Setting atom values ...
  1005 settings made for property/atom
LIGGGHTS finished

 timeStepFraction() = 1
update Ksl.internalField()

Solver level total Eulerian momentum exchange:
  TotalForceImp:  (0.00486617 -0.0565662 -23.9914)
  Warning, these values are based on latest Ksl and Us but prev. iteration U!

total convective particle-fluid heat flux [W] (Eulerian) = 1727.77
DILUPBiCG:  Solving for T, Initial residual = 0.161892, Final residual = 1.1534e-08, No Iterations 4
DILUPBiCG:  Solving for Ux, Initial residual = 0.0101122, Final residual = 2.51935e-08, No Iterations 2
DILUPBiCG:  Solving for Uy, Initial residual = 0.00917969, Final residual = 4.31848e-06, No Iterations 1
DILUPBiCG:  Solving for Uz, Initial residual = 0.0155293, Final residual = 3.71791e-06, No Iterations 1
DICPCG:  Solving for p, Initial residual = 0.00127222, Final residual = 9.94341e-05, No Iterations 5
time step continuity errors : sum local = 7.96057e-05, global = 2.36432e-05, cumulative = 5.46191e-05
DICPCG:  Solving for p, Initial residual = 0.000113142, Final residual = 6.10275e-06, No Iterations 21
time step continuity errors : sum local = 4.88683e-06, global = -5.59995e-08, cumulative = 5.45631e-05
DICPCG:  Solving for p, Initial residual = 9.64421e-06, Final residual = 7.44025e-07, No Iterations 19
time step continuity errors : sum local = 5.91587e-07, global = 7.19277e-10, cumulative = 5.45639e-05
DICPCG:  Solving for p, Initial residual = 7.49341e-07, Final residual = 7.49341e-07, No Iterations 0
time step continuity errors : sum local = 5.95886e-07, global = 6.08166e-09, cumulative = 5.45699e-05
DILUPBiCG:  Solving for epsilon, Initial residual = 0, Final residual = 0, No Iterations 0
DILUPBiCG:  Solving for k, Initial residual = 0.981958, Final residual = 5.51463e-06, No Iterations 3
ExecutionTime = 0.53 s  ClockTime = 1 s

Time = 0.02

Courant Number mean: 0.0854149 max: 0.112805

 Coupling...
Starting up LIGGGHTS
Executing command: 'run 500    '
run 500    
Setting up run at Tue Dec  4 22:13:35 2018

Memory usage per processor = 9.13486 Mbytes
    Step    Atoms         KinEng            rke       heattran         Volume 
  151501     1005  0.00013942823  1.9062327e-05      840.47342          0.011 
CFD Coupling established at step 151600
CFD Coupling established at step 151700
CFD Coupling established at step 151800
CFD Coupling established at step 151900
CFD Coupling established at step 152000
  152000     1005  4.4141514e-05   1.833407e-05      831.85186          0.011 
  152001     1005  4.3996821e-05   1.831257e-05      831.83458          0.011 
Loop time of 0.141923 on 2 procs for 500 steps with 1005 atoms, finish time Tue Dec  4 22:13:35 2018


Pair  time (%) = 0.0678823 (47.8303)
Neigh time (%) = 0 (0)
Comm  time (%) = 0.0219608 (15.4737)
Outpt time (%) = 5.94775e-05 (0.0419082)
Other time (%) = 0.0520207 (36.6541)

Nlocal:    502.5 ave 547 max 458 min
Histogram: 1 0 0 0 0 0 0 0 0 1
Nghost:    32 ave 34 max 30 min
Histogram: 1 0 0 0 0 0 0 0 0 1
Neighs:    2841 ave 3106 max 2576 min
Histogram: 1 0 0 0 0 0 0 0 0 1

Total # of neighbors = 5682
Ave neighs/atom = 5.65373
Neighbor list builds = 0
Dangerous builds = 0
Executing command: 'set region total property/atom Temp 600.000000 '
set region total property/atom Temp 600.000000 
Setting atom values ...
  1005 settings made for property/atom
LIGGGHTS finished

 timeStepFraction() = 1
update Ksl.internalField()

Solver level total Eulerian momentum exchange:
  TotalForceImp:  (0.00328449 -0.0622181 -23.9863)
  Warning, these values are based on latest Ksl and Us but prev. iteration U!

total convective particle-fluid heat flux [W] (Eulerian) = 1720.44
DILUPBiCG:  Solving for T, Initial residual = 0.109067, Final residual = 9.00947e-07, No Iterations 3
DILUPBiCG:  Solving for Ux, Initial residual = 0.00570374, Final residual = 3.89436e-06, No Iterations 1
DILUPBiCG:  Solving for Uy, Initial residual = 0.00460017, Final residual = 1.93406e-06, No Iterations 1
DILUPBiCG:  Solving for Uz, Initial residual = 0.0101767, Final residual = 5.18895e-06, No Iterations 1
DICPCG:  Solving for p, Initial residual = 0.000903341, Final residual = 6.95905e-05, No Iterations 5
time step continuity errors : sum local = 5.53686e-05, global = 1.14318e-05, cumulative = 6.60017e-05
DICPCG:  Solving for p, Initial residual = 7.76314e-05, Final residual = 4.11724e-06, No Iterations 9
time step continuity errors : sum local = 3.27703e-06, global = -2.42744e-07, cumulative = 6.5759e-05
DICPCG:  Solving for p, Initial residual = 6.38533e-06, Final residual = 8.76688e-07, No Iterations 8
time step continuity errors : sum local = 6.97657e-07, global = 3.56245e-07, cumulative = 6.61152e-05
DICPCG:  Solving for p, Initial residual = 8.64715e-07, Final residual = 8.64715e-07, No Iterations 0
time step continuity errors : sum local = 6.88122e-07, global = 3.85514e-07, cumulative = 6.65007e-05
DILUPBiCG:  Solving for epsilon, Initial residual = 0, Final residual = 0, No Iterations 0
DILUPBiCG:  Solving for k, Initial residual = 0.972551, Final residual = 5.60363e-06, No Iterations 3
ExecutionTime = 0.68 s  ClockTime = 1 s

Time = 0.025

Courant Number mean: 0.0854317 max: 0.112823

 Coupling...
Starting up LIGGGHTS
Executing command: 'run 500    '
run 500    
Setting up run at Tue Dec  4 22:13:35 2018

Memory usage per processor = 9.13486 Mbytes
    Step    Atoms         KinEng            rke       heattran         Volume 
  152001     1005  4.3996821e-05   1.831257e-05      840.47342          0.011 
CFD Coupling established at step 152100
CFD Coupling established at step 152200
CFD Coupling established at step 152300
CFD Coupling established at step 152400
CFD Coupling established at step 152500
  152501     1005  3.8010108e-05  1.4347144e-05      831.87124          0.011 
Loop time of 0.138034 on 2 procs for 500 steps with 1005 atoms, finish time Tue Dec  4 22:13:35 2018


Pair  time (%) = 0.066409 (48.1106)
Neigh time (%) = 0 (0)
Comm  time (%) = 0.0206439 (14.9556)
Outpt time (%) = 3.01575e-05 (0.0218479)
Other time (%) = 0.0509511 (36.9119)

Nlocal:    502.5 ave 546 max 459 min
Histogram: 1 0 0 0 0 0 0 0 0 1
Nghost:    32 ave 33 max 31 min
Histogram: 1 0 0 0 0 0 0 0 0 1
Neighs:    2840.5 ave 3098 max 2583 min
Histogram: 1 0 0 0 0 0 0 0 0 1

Total # of neighbors = 5681
Ave neighs/atom = 5.65274
Neighbor list builds = 0
Dangerous builds = 0
Executing command: 'set region total property/atom Temp 600.000000 '
set region total property/atom Temp 600.000000 
Setting atom values ...
  1005 settings made for property/atom
LIGGGHTS finished

 timeStepFraction() = 1
update Ksl.internalField()

Solver level total Eulerian momentum exchange:
  TotalForceImp:  (0.00442167 -0.0639735 -24.0176)
  Warning, these values are based on latest Ksl and Us but prev. iteration U!

total convective particle-fluid heat flux [W] (Eulerian) = 1713.1
DILUPBiCG:  Solving for T, Initial residual = 0.0824529, Final residual = 5.11761e-09, No Iterations 3
DILUPBiCG:  Solving for Ux, Initial residual = 0.00633619, Final residual = 4.843e-06, No Iterations 1
DILUPBiCG:  Solving for Uy, Initial residual = 0.00357864, Final residual = 1.76204e-06, No Iterations 1
DILUPBiCG:  Solving for Uz, Initial residual = 0.00699717, Final residual = 3.50231e-06, No Iterations 1
DICPCG:  Solving for p, Initial residual = 0.000540327, Final residual = 3.77411e-05, No Iterations 4
time step continuity errors : sum local = 3.00411e-05, global = 2.57924e-06, cumulative = 6.908e-05
DICPCG:  Solving for p, Initial residual = 4.50514e-05, Final residual = 4.17837e-06, No Iterations 8
time step continuity errors : sum local = 3.32655e-06, global = -7.74129e-07, cumulative = 6.83059e-05
DICPCG:  Solving for p, Initial residual = 4.51111e-06, Final residual = 6.87502e-07, No Iterations 20
time step continuity errors : sum local = 5.47344e-07, global = 2.38683e-08, cumulative = 6.83297e-05
DICPCG:  Solving for p, Initial residual = 8.3929e-07, Final residual = 8.3929e-07, No Iterations 0
time step continuity errors : sum local = 6.68473e-07, global = 6.6447e-08, cumulative = 6.83962e-05
DILUPBiCG:  Solving for epsilon, Initial residual = 0, Final residual = 0, No Iterations 0
DILUPBiCG:  Solving for k, Initial residual = 0.962573, Final residual = 3.93743e-06, No Iterations 3
ExecutionTime = 0.83 s  ClockTime = 1 s

Time = 0.03

Courant Number mean: 0.0854668 max: 0.112834

 Coupling...
Starting up LIGGGHTS
Executing command: 'run 500    '
run 500    
Setting up run at Tue Dec  4 22:13:35 2018

Memory usage per processor = 9.13486 Mbytes
    Step    Atoms         KinEng            rke       heattran         Volume 
  152501     1005  3.8010108e-05  1.4347144e-05      840.47342          0.011 
CFD Coupling established at step 152600
CFD Coupling established at step 152700
CFD Coupling established at step 152800
CFD Coupling established at step 152900
CFD Coupling established at step 153000
  153000     1005  2.5129267e-05  1.5380763e-05      831.92504          0.011 
  153001     1005  2.5112351e-05  1.5380528e-05      831.90791          0.011 
Loop time of 0.148711 on 2 procs for 500 steps with 1005 atoms, finish time Tue Dec  4 22:13:35 2018


Pair  time (%) = 0.072164 (48.5265)
Neigh time (%) = 0 (0)
Comm  time (%) = 0.0220842 (14.8504)
Outpt time (%) = 6.3078e-05 (0.0424166)
Other time (%) = 0.0543994 (36.5807)

Nlocal:    502.5 ave 546 max 459 min
Histogram: 1 0 0 0 0 0 0 0 0 1
Nghost:    32 ave 33 max 31 min
Histogram: 1 0 0 0 0 0 0 0 0 1
Neighs:    2841 ave 3099 max 2583 min
Histogram: 1 0 0 0 0 0 0 0 0 1

Total # of neighbors = 5682
Ave neighs/atom = 5.65373
Neighbor list builds = 0
Dangerous builds = 0
Executing command: 'set region total property/atom Temp 600.000000 '
set region total property/atom Temp 600.000000 
Setting atom values ...
  1005 settings made for property/atom
LIGGGHTS finished

 timeStepFraction() = 1
update Ksl.internalField()

Solver level total Eulerian momentum exchange:
  TotalForceImp:  (0.002755 -0.0651592 -23.995)
  Warning, these values are based on latest Ksl and Us but prev. iteration U!

total convective particle-fluid heat flux [W] (Eulerian) = 1705.58
DILUPBiCG:  Solving for T, Initial residual = 0.0664202, Final residual = 3.69699e-09, No Iterations 3
DILUPBiCG:  Solving for Ux, Initial residual = 0.00473917, Final residual = 2.45959e-06, No Iterations 1
DILUPBiCG:  Solving for Uy, Initial residual = 0.00322861, Final residual = 9.58188e-07, No Iterations 1
DILUPBiCG:  Solving for Uz, Initial residual = 0.00550778, Final residual = 2.44658e-06, No Iterations 1
DICPCG:  Solving for p, Initial residual = 0.000318853, Final residual = 2.53297e-05, No Iterations 3
time step continuity errors : sum local = 2.00923e-05, global = -1.40597e-07, cumulative = 6.82556e-05
DICPCG:  Solving for p, Initial residual = 3.02836e-05, Final residual = 7.97396e-07, No Iterations 21
time step continuity errors : sum local = 6.32577e-07, global = 1.8427e-08, cumulative = 6.8274e-05
DICPCG:  Solving for p, Initial residual = 1.50197e-06, Final residual = 9.09826e-07, No Iterations 1
time step continuity errors : sum local = 7.21249e-07, global = -2.42151e-08, cumulative = 6.82498e-05
DICPCG:  Solving for p, Initial residual = 9.29063e-07, Final residual = 9.29063e-07, No Iterations 0
time step continuity errors : sum local = 7.36498e-07, global = -2.5763e-08, cumulative = 6.8224e-05
DILUPBiCG:  Solving for epsilon, Initial residual = 0, Final residual = 0, No Iterations 0
DILUPBiCG:  Solving for k, Initial residual = 0.952279, Final residual = 5.66788e-06, No Iterations 3
ExecutionTime = 0.99 s  ClockTime = 1 s

Time = 0.035

Courant Number mean: 0.085532 max: 0.112829

 Coupling...
Starting up LIGGGHTS
Executing command: 'run 500    '
run 500    
Setting up run at Tue Dec  4 22:13:35 2018

Memory usage per processor = 9.13486 Mbytes
    Step    Atoms         KinEng            rke       heattran         Volume 
  153001     1005  2.5112351e-05  1.5380528e-05      840.47342          0.011 
CFD Coupling established at step 153100
CFD Coupling established at step 153200
CFD Coupling established at step 153300
CFD Coupling established at step 153400
CFD Coupling established at step 153500
  153501     1005  2.5297427e-05  1.4859921e-05      831.94554          0.011 
Loop time of 0.141679 on 2 procs for 500 steps with 1005 atoms, finish time Tue Dec  4 22:13:36 2018


Pair  time (%) = 0.0679382 (47.9522)
Neigh time (%) = 0 (0)
Comm  time (%) = 0.0221637 (15.6436)
Outpt time (%) = 3.05935e-05 (0.0215935)
Other time (%) = 0.0515465 (36.3826)

Nlocal:    502.5 ave 547 max 458 min
Histogram: 1 0 0 0 0 0 0 0 0 1
Nghost:    32 ave 34 max 30 min
Histogram: 1 0 0 0 0 0 0 0 0 1
Neighs:    2841.5 ave 3107 max 2576 min
Histogram: 1 0 0 0 0 0 0 0 0 1

Total # of neighbors = 5683
Ave neighs/atom = 5.65473
Neighbor list builds = 0
Dangerous builds = 0
Executing command: 'set region total property/atom Temp 600.000000 '
set region total property/atom Temp 600.000000 
Setting atom values ...
  1005 settings made for property/atom
LIGGGHTS finished

 timeStepFraction() = 1
update Ksl.internalField()

Solver level total Eulerian momentum exchange:
  TotalForceImp:  (-0.000798904 -0.0642742 -23.9641)
  Warning, these values are based on latest Ksl and Us but prev. iteration U!

total convective particle-fluid heat flux [W] (Eulerian) = 1698.02
DILUPBiCG:  Solving for T, Initial residual = 0.0556997, Final residual = 3.07984e-09, No Iterations 3
DILUPBiCG:  Solving for Ux, Initial residual = 0.00449493, Final residual = 6.16154e-06, No Iterations 1
DILUPBiCG:  Solving for Uy, Initial residual = 0.00260717, Final residual = 3.05571e-06, No Iterations 1
DILUPBiCG:  Solving for Uz, Initial residual = 0.00322799, Final residual = 1.74092e-06, No Iterations 1
DICPCG:  Solving for p, Initial residual = 0.00019341, Final residual = 1.35586e-05, No Iterations 2
time step continuity errors : sum local = 1.06937e-05, global = -2.48549e-07, cumulative = 6.79755e-05
DICPCG:  Solving for p, Initial residual = 1.42426e-05, Final residual = 3.73239e-07, No Iterations 21
time step continuity errors : sum local = 2.94378e-07, global = 2.02453e-08, cumulative = 6.79957e-05
DICPCG:  Solving for p, Initial residual = 6.52429e-07, Final residual = 6.52429e-07, No Iterations 0
time step continuity errors : sum local = 5.14265e-07, global = 4.14536e-08, cumulative = 6.80372e-05
DICPCG:  Solving for p, Initial residual = 6.85359e-07, Final residual = 6.85359e-07, No Iterations 0
time step continuity errors : sum local = 5.40222e-07, global = 4.24468e-08, cumulative = 6.80796e-05
DILUPBiCG:  Solving for epsilon, Initial residual = 0, Final residual = 0, No Iterations 0
DILUPBiCG:  Solving for k, Initial residual = 0.941718, Final residual = 7.12805e-06, No Iterations 3
ExecutionTime = 1.14 s  ClockTime = 2 s

Time = 0.04

Courant Number mean: 0.0855901 max: 0.112834

 Coupling...
Starting up LIGGGHTS
Executing command: 'run 500    '
run 500    
Setting up run at Tue Dec  4 22:13:36 2018

Memory usage per processor = 9.13486 Mbytes
    Step    Atoms         KinEng            rke       heattran         Volume 
  153501     1005  2.5297427e-05  1.4859921e-05      840.47342          0.011 
CFD Coupling established at step 153600
CFD Coupling established at step 153700
CFD Coupling established at step 153800
CFD Coupling established at step 153900
CFD Coupling established at step 154000
  154000     1005  1.0959747e-05  1.2343188e-05       832.0003          0.011 
  154001     1005  1.0944146e-05  1.2340182e-05      831.98332          0.011 
Loop time of 0.149944 on 2 procs for 500 steps with 1005 atoms, finish time Tue Dec  4 22:13:36 2018


Pair  time (%) = 0.0731734 (48.8005)
Neigh time (%) = 0 (0)
Comm  time (%) = 0.0220015 (14.6732)
Outpt time (%) = 8.55405e-05 (0.0570483)
Other time (%) = 0.0546836 (36.4693)

Nlocal:    502.5 ave 547 max 458 min
Histogram: 1 0 0 0 0 0 0 0 0 1
Nghost:    32 ave 34 max 30 min
Histogram: 1 0 0 0 0 0 0 0 0 1
Neighs:    2841.5 ave 3106 max 2577 min
Histogram: 1 0 0 0 0 0 0 0 0 1

Total # of neighbors = 5683
Ave neighs/atom = 5.65473
Neighbor list builds = 0
Dangerous builds = 0
Executing command: 'set region total property/atom Temp 600.000000 '
set region total property/atom Temp 600.000000 
Setting atom values ...
  1005 settings made for property/atom
LIGGGHTS finished

 timeStepFraction() = 1
update Ksl.internalField()

Solver level total Eulerian momentum exchange:
  TotalForceImp:  (-0.000941074 -0.0629001 -23.9674)
  Warning, these values are based on latest Ksl and Us but prev. iteration U!

total convective particle-fluid heat flux [W] (Eulerian) = 1690.7
DILUPBiCG:  Solving for T, Initial residual = 0.0479565, Final residual = 2.63581e-09, No Iterations 3
DILUPBiCG:  Solving for Ux, Initial residual = 0.00388601, Final residual = 1.34294e-06, No Iterations 1
DILUPBiCG:  Solving for Uy, Initial residual = 0.00285396, Final residual = 8.91782e-07, No Iterations 1
DILUPBiCG:  Solving for Uz, Initial residual = 0.00424723, Final residual = 1.67743e-06, No Iterations 1
DICPCG:  Solving for p, Initial residual = 0.000220419, Final residual = 2.06524e-05, No Iterations 3
time step continuity errors : sum local = 1.62623e-05, global = -4.42675e-07, cumulative = 6.7637e-05
DICPCG:  Solving for p, Initial residual = 2.164e-05, Final residual = 1.51281e-06, No Iterations 13
time step continuity errors : sum local = 1.19112e-06, global = -5.07448e-07, cumulative = 6.71295e-05
DICPCG:  Solving for p, Initial residual = 1.99232e-06, Final residual = 3.68767e-07, No Iterations 20
time step continuity errors : sum local = 2.90318e-07, global = 8.13756e-09, cumulative = 6.71376e-05
DICPCG:  Solving for p, Initial residual = 4.27789e-07, Final residual = 4.27789e-07, No Iterations 0
time step continuity errors : sum local = 3.36857e-07, global = 3.93254e-08, cumulative = 6.7177e-05
DILUPBiCG:  Solving for epsilon, Initial residual = 0, Final residual = 0, No Iterations 0
DILUPBiCG:  Solving for k, Initial residual = 0.925942, Final residual = 7.01924e-06, No Iterations 3
ExecutionTime = 1.31 s  ClockTime = 2 s

Time = 0.045

Courant Number mean: 0.0856205 max: 0.112832

 Coupling...
Starting up LIGGGHTS
Executing command: 'run 500    '
run 500    
Setting up run at Tue Dec  4 22:13:36 2018

Memory usage per processor = 9.13486 Mbytes
    Step    Atoms         KinEng            rke       heattran         Volume 
  154001     1005  1.0944146e-05  1.2340182e-05      840.47342          0.011 
CFD Coupling established at step 154100
CFD Coupling established at step 154200
CFD Coupling established at step 154300
CFD Coupling established at step 154400
CFD Coupling established at step 154500
  154501     1005  1.3878425e-05  1.2958315e-05       832.0199          0.011 
Loop time of 0.136775 on 2 procs for 500 steps with 1005 atoms, finish time Tue Dec  4 22:13:36 2018


Pair  time (%) = 0.065474 (47.8698)
Neigh time (%) = 0 (0)
Comm  time (%) = 0.0205398 (15.0172)
Outpt time (%) = 3.5933e-05 (0.0262716)
Other time (%) = 0.0507254 (37.0867)

Nlocal:    502.5 ave 546 max 459 min
Histogram: 1 0 0 0 0 0 0 0 0 1
Nghost:    32 ave 33 max 31 min
Histogram: 1 0 0 0 0 0 0 0 0 1
Neighs:    2841.5 ave 3099 max 2584 min
Histogram: 1 0 0 0 0 0 0 0 0 1

Total # of neighbors = 5683
Ave neighs/atom = 5.65473
Neighbor list builds = 0
Dangerous builds = 0
Executing command: 'set region total property/atom Temp 600.000000 '
set region total property/atom Temp 600.000000 
Setting atom values ...
  1005 settings made for property/atom
LIGGGHTS finished

 timeStepFraction() = 1
update Ksl.internalField()

Solver level total Eulerian momentum exchange:
  TotalForceImp:  (0.00137379 -0.0623267 -23.9809)
  Warning, these values are based on latest Ksl and Us but prev. iteration U!

total convective particle-fluid heat flux [W] (Eulerian) = 1683.6
DILUPBiCG:  Solving for T, Initial residual = 0.0420713, Final residual = 2.29792e-09, No Iterations 3
DILUPBiCG:  Solving for Ux, Initial residual = 0.00382838, Final residual = 3.2795e-06, No Iterations 1
DILUPBiCG:  Solving for Uy, Initial residual = 0.00239018, Final residual = 1.84715e-06, No Iterations 1
DILUPBiCG:  Solving for Uz, Initial residual = 0.00239227, Final residual = 2.06953e-06, No Iterations 1
DICPCG:  Solving for p, Initial residual = 0.000120036, Final residual = 8.71164e-06, No Iterations 8
time step continuity errors : sum local = 6.80328e-06, global = 1.45819e-06, cumulative = 6.86352e-05
DICPCG:  Solving for p, Initial residual = 1.05895e-05, Final residual = 5.76117e-07, No Iterations 9
time step continuity errors : sum local = 4.49852e-07, global = -6.89819e-08, cumulative = 6.85662e-05
DICPCG:  Solving for p, Initial residual = 7.09801e-07, Final residual = 7.09801e-07, No Iterations 0
time step continuity errors : sum local = 5.54233e-07, global = -1.55964e-07, cumulative = 6.84102e-05
DICPCG:  Solving for p, Initial residual = 7.1332e-07, Final residual = 7.1332e-07, No Iterations 0
time step continuity errors : sum local = 5.56981e-07, global = -1.58689e-07, cumulative = 6.82515e-05
DILUPBiCG:  Solving for epsilon, Initial residual = 0, Final residual = 0, No Iterations 0
DILUPBiCG:  Solving for k, Initial residual = 0.907268, Final residual = 6.95525e-06, No Iterations 3
ExecutionTime = 1.46 s  ClockTime = 2 s

Time = 0.05

Courant Number mean: 0.0856418 max: 0.112816

 Coupling...
Starting up LIGGGHTS
Executing command: 'run 500    '
run 500    
Setting up run at Tue Dec  4 22:13:36 2018

Memory usage per processor = 9.13486 Mbytes
    Step    Atoms         KinEng            rke       heattran         Volume 
  154501     1005  1.3878425e-05  1.2958315e-05      840.47342          0.011 
CFD Coupling established at step 154600
CFD Coupling established at step 154700
CFD Coupling established at step 154800
CFD Coupling established at step 154900
CFD Coupling established at step 155000
  155000     1005  8.8578392e-06  1.2402913e-05      832.07224          0.011 
  155001     1005    8.84201e-06  1.2397861e-05      832.05541          0.011 
Loop time of 0.140867 on 2 procs for 500 steps with 1005 atoms, finish time Tue Dec  4 22:13:36 2018


Pair  time (%) = 0.0674462 (47.8794)
Neigh time (%) = 0 (0)
Comm  time (%) = 0.0215735 (15.3148)
Outpt time (%) = 8.504e-05 (0.0603691)
Other time (%) = 0.0517621 (36.7454)

Nlocal:    502.5 ave 546 max 459 min
Histogram: 1 0 0 0 0 0 0 0 0 1
Nghost:    32 ave 33 max 31 min
Histogram: 1 0 0 0 0 0 0 0 0 1
Neighs:    2841.5 ave 3099 max 2584 min
Histogram: 1 0 0 0 0 0 0 0 0 1

Total # of neighbors = 5683
Ave neighs/atom = 5.65473
Neighbor list builds = 0
Dangerous builds = 0
Executing command: 'set region total property/atom Temp 600.000000 '
set region total property/atom Temp 600.000000 
Setting atom values ...
  1005 settings made for property/atom
LIGGGHTS finished

 timeStepFraction() = 1
update Ksl.internalField()

Solver level total Eulerian momentum exchange:
  TotalForceImp:  (0.00108173 -0.063408 -23.9756)
  Warning, these values are based on latest Ksl and Us but prev. iteration U!

total convective particle-fluid heat flux [W] (Eulerian) = 1676.58
DILUPBiCG:  Solving for T, Initial residual = 0.037503, Final residual = 2.0413e-09, No Iterations 3
DILUPBiCG:  Solving for Ux, Initial residual = 0.00294758, Final residual = 1.27755e-06, No Iterations 1
DILUPBiCG:  Solving for Uy, Initial residual = 0.00233316, Final residual = 1.00429e-06, No Iterations 1
DILUPBiCG:  Solving for Uz, Initial residual = 0.00348773, Final residual = 1.1014e-06, No Iterations 1
DICPCG:  Solving for p, Initial residual = 0.000184526, Final residual = 1.26608e-05, No Iterations 3
time step continuity errors : sum local = 9.88554e-06, global = -1.87588e-07, cumulative = 6.80639e-05
DICPCG:  Solving for p, Initial residual = 1.33501e-05, Final residual = 1.05223e-06, No Iterations 18
time step continuity errors : sum local = 8.21573e-07, global = -3.08332e-07, cumulative = 6.77556e-05
DICPCG:  Solving for p, Initial residual = 1.12905e-06, Final residual = 8.09546e-07, No Iterations 1
time step continuity errors : sum local = 6.31911e-07, global = -2.16263e-07, cumulative = 6.75393e-05
DICPCG:  Solving for p, Initial residual = 8.23998e-07, Final residual = 8.23998e-07, No Iterations 0
time step continuity errors : sum local = 6.43192e-07, global = -2.14065e-07, cumulative = 6.73253e-05
DILUPBiCG:  Solving for epsilon, Initial residual = 0, Final residual = 0, No Iterations 0
DILUPBiCG:  Solving for k, Initial residual = 0.888967, Final residual = 6.77325e-06, No Iterations 3
ExecutionTime = 1.61 s  ClockTime = 2 s

Time = 0.055

Courant Number mean: 0.0856823 max: 0.114262

 Coupling...
Starting up LIGGGHTS
Executing command: 'run 500    '
run 500    
Setting up run at Tue Dec  4 22:13:36 2018

Memory usage per processor = 9.13486 Mbytes
    Step    Atoms         KinEng            rke       heattran         Volume 
  155001     1005    8.84201e-06  1.2397861e-05      840.47342          0.011 
CFD Coupling established at step 155100
CFD Coupling established at step 155200
CFD Coupling established at step 155300
CFD Coupling established at step 155400
CFD Coupling established at step 155500
  155501     1005  6.6995883e-06  1.0732947e-05      832.09054          0.011 
Loop time of 0.14751 on 2 procs for 500 steps with 1005 atoms, finish time Tue Dec  4 22:13:36 2018


Pair  time (%) = 0.0723665 (49.0588)
Neigh time (%) = 0 (0)
Comm  time (%) = 0.0213363 (14.4643)
Outpt time (%) = 4.93325e-05 (0.0334435)
Other time (%) = 0.0537577 (36.4434)

Nlocal:    502.5 ave 546 max 459 min
Histogram: 1 0 0 0 0 0 0 0 0 1
Nghost:    32 ave 33 max 31 min
Histogram: 1 0 0 0 0 0 0 0 0 1
Neighs:    2841 ave 3099 max 2583 min
Histogram: 1 0 0 0 0 0 0 0 0 1

Total # of neighbors = 5682
Ave neighs/atom = 5.65373
Neighbor list builds = 0
Dangerous builds = 0
Executing command: 'set region total property/atom Temp 600.000000 '
set region total property/atom Temp 600.000000 
Setting atom values ...
  1005 settings made for property/atom
LIGGGHTS finished

 timeStepFraction() = 1
update Ksl.internalField()

Solver level total Eulerian momentum exchange:
  TotalForceImp:  (-0.00122113 -0.0642252 -23.9638)
  Warning, these values are based on latest Ksl and Us but prev. iteration U!

total convective particle-fluid heat flux [W] (Eulerian) = 1669.6
DILUPBiCG:  Solving for T, Initial residual = 0.033849, Final residual = 1.83403e-09, No Iterations 3
DILUPBiCG:  Solving for Ux, Initial residual = 0.00308045, Final residual = 2.47924e-07, No Iterations 2
DILUPBiCG:  Solving for Uy, Initial residual = 0.00201292, Final residual = 6.94867e-06, No Iterations 1
DILUPBiCG:  Solving for Uz, Initial residual = 0.00183274, Final residual = 1.22911e-06, No Iterations 1
DICPCG:  Solving for p, Initial residual = 8.45482e-05, Final residual = 7.12539e-06, No Iterations 8
time step continuity errors : sum local = 5.56188e-06, global = -4.5314e-07, cumulative = 6.68721e-05
DICPCG:  Solving for p, Initial residual = 8.32216e-06, Final residual = 9.52964e-07, No Iterations 7
time step continuity errors : sum local = 7.43914e-07, global = -1.87027e-07, cumulative = 6.66851e-05
DICPCG:  Solving for p, Initial residual = 1.05076e-06, Final residual = 8.15265e-07, No Iterations 1
time step continuity errors : sum local = 6.36424e-07, global = -1.57797e-07, cumulative = 6.65273e-05
DICPCG:  Solving for p, Initial residual = 8.19058e-07, Final residual = 8.19058e-07, No Iterations 0
time step continuity errors : sum local = 6.39384e-07, global = -1.56648e-07, cumulative = 6.63707e-05
DILUPBiCG:  Solving for epsilon, Initial residual = 0, Final residual = 0, No Iterations 0
DILUPBiCG:  Solving for k, Initial residual = 0.870797, Final residual = 6.86698e-06, No Iterations 3
ExecutionTime = 1.77 s  ClockTime = 2 s

Time = 0.06

Courant Number mean: 0.0857173 max: 0.115876

 Coupling...
Starting up LIGGGHTS
Executing command: 'run 500    '
run 500    
Setting up run at Tue Dec  4 22:13:36 2018

Memory usage per processor = 9.13486 Mbytes
    Step    Atoms         KinEng            rke       heattran         Volume 
  155501     1005  6.6995883e-06  1.0732947e-05      840.47342          0.011 
CFD Coupling established at step 155600
CFD Coupling established at step 155700
CFD Coupling established at step 155800
CFD Coupling established at step 155900
CFD Coupling established at step 156000
  156000     1005  6.4041236e-06    1.13848e-05      832.14212          0.011 
  156001     1005  6.3982896e-06  1.1384702e-05      832.12542          0.011 
Loop time of 0.140144 on 2 procs for 500 steps with 1005 atoms, finish time Tue Dec  4 22:13:36 2018


Pair  time (%) = 0.067907 (48.4551)
Neigh time (%) = 0 (0)
Comm  time (%) = 0.020352 (14.5222)
Outpt time (%) = 0.000106385 (0.075911)
Other time (%) = 0.0517789 (36.9468)

Nlocal:    502.5 ave 546 max 459 min
Histogram: 1 0 0 0 0 0 0 0 0 1
Nghost:    32 ave 33 max 31 min
Histogram: 1 0 0 0 0 0 0 0 0 1
Neighs:    2841 ave 3099 max 2583 min
Histogram: 1 0 0 0 0 0 0 0 0 1

Total # of neighbors = 5682
Ave neighs/atom = 5.65373
Neighbor list builds = 0
Dangerous builds = 0
Executing command: 'set region total property/atom Temp 600.000000 '
set region total property/atom Temp 600.000000 
Setting atom values ...
  1005 settings made for property/atom
LIGGGHTS finished

 timeStepFraction() = 1
update Ksl.internalField()

Solver level total Eulerian momentum exchange:
  TotalForceImp:  (-0.00190081 -0.0639807 -23.9693)
  Warning, these values are based on latest Ksl and Us but prev. iteration U!

total convective particle-fluid heat flux [W] (Eulerian) = 1662.82
DILUPBiCG:  Solving for T, Initial residual = 0.0308608, Final residual = 1.60693e-09, No Iterations 3
DILUPBiCG:  Solving for Ux, Initial residual = 0.00241568, Final residual = 1.15163e-08, No Iterations 2
DILUPBiCG:  Solving for Uy, Initial residual = 0.00164422, Final residual = 2.89979e-06, No Iterations 1
DILUPBiCG:  Solving for Uz, Initial residual = 0.0011567, Final residual = 3.37642e-07, No Iterations 1
DICPCG:  Solving for p, Initial residual = 6.39835e-05, Final residual = 4.4391e-06, No Iterations 4
time step continuity errors : sum local = 3.46525e-06, global = -1.28315e-06, cumulative = 6.50875e-05
DICPCG:  Solving for p, Initial residual = 5.7442e-06, Final residual = 6.74681e-07, No Iterations 20
time step continuity errors : sum local = 5.26665e-07, global = -2.03103e-08, cumulative = 6.50672e-05
DICPCG:  Solving for p, Initial residual = 7.88218e-07, Final residual = 7.88218e-07, No Iterations 0
time step continuity errors : sum local = 6.1543e-07, global = 5.73851e-08, cumulative = 6.51246e-05
DICPCG:  Solving for p, Initial residual = 7.94377e-07, Final residual = 7.94377e-07, No Iterations 0
time step continuity errors : sum local = 6.20239e-07, global = 6.01187e-08, cumulative = 6.51847e-05
DILUPBiCG:  Solving for epsilon, Initial residual = 0, Final residual = 0, No Iterations 0
DILUPBiCG:  Solving for k, Initial residual = 0.85269, Final residual = 2.54326e-07, No Iterations 3
ExecutionTime = 1.92 s  ClockTime = 2 s

Time = 0.065

Courant Number mean: 0.0857524 max: 0.117357

 Coupling...
Starting up LIGGGHTS
Executing command: 'run 500    '
run 500    
Setting up run at Tue Dec  4 22:13:36 2018

Memory usage per processor = 9.13486 Mbytes
    Step    Atoms         KinEng            rke       heattran         Volume 
  156001     1005  6.3982896e-06  1.1384702e-05      840.47342          0.011 
CFD Coupling established at step 156100
CFD Coupling established at step 156200
CFD Coupling established at step 156300
CFD Coupling established at step 156400
CFD Coupling established at step 156500
  156501     1005  4.2381666e-06   1.055672e-05      832.15931          0.011 
Loop time of 0.16971 on 2 procs for 500 steps with 1005 atoms, finish time Tue Dec  4 22:13:36 2018


Pair  time (%) = 0.0851338 (50.1643)
Neigh time (%) = 0 (0)
Comm  time (%) = 0.0233696 (13.7703)
Outpt time (%) = 3.0672e-05 (0.0180732)
Other time (%) = 0.0611757 (36.0473)

Nlocal:    502.5 ave 546 max 459 min
Histogram: 1 0 0 0 0 0 0 0 0 1
Nghost:    32 ave 33 max 31 min
Histogram: 1 0 0 0 0 0 0 0 0 1
Neighs:    2841.5 ave 3099 max 2584 min
Histogram: 1 0 0 0 0 0 0 0 0 1

Total # of neighbors = 5683
Ave neighs/atom = 5.65473
Neighbor list builds = 0
Dangerous builds = 0
Executing command: 'set region total property/atom Temp 600.000000 '
set region total property/atom Temp 600.000000 
Setting atom values ...
  1005 settings made for property/atom
LIGGGHTS finished

 timeStepFraction() = 1
update Ksl.internalField()

Solver level total Eulerian momentum exchange:
  TotalForceImp:  (-0.00107067 -0.0643071 -23.973)
  Warning, these values are based on latest Ksl and Us but prev. iteration U!

total convective particle-fluid heat flux [W] (Eulerian) = 1656.13
DILUPBiCG:  Solving for T, Initial residual = 0.0283802, Final residual = 9.51925e-07, No Iterations 2
DILUPBiCG:  Solving for Ux, Initial residual = 0.00242416, Final residual = 2.44362e-06, No Iterations 1
DILUPBiCG:  Solving for Uy, Initial residual = 0.00146586, Final residual = 3.00084e-06, No Iterations 1
DILUPBiCG:  Solving for Uz, Initial residual = 0.00115065, Final residual = 1.02359e-06, No Iterations 1
DICPCG:  Solving for p, Initial residual = 5.43723e-05, Final residual = 2.01345e-06, No Iterations 7
time step continuity errors : sum local = 1.57205e-06, global = 4.33588e-07, cumulative = 6.56183e-05
DICPCG:  Solving for p, Initial residual = 2.77303e-06, Final residual = 9.98568e-07, No Iterations 4
time step continuity errors : sum local = 7.79631e-07, global = 2.79258e-07, cumulative = 6.58976e-05
DICPCG:  Solving for p, Initial residual = 1.03593e-06, Final residual = 6.651e-07, No Iterations 1
time step continuity errors : sum local = 5.19274e-07, global = 2.12535e-07, cumulative = 6.61101e-05
DICPCG:  Solving for p, Initial residual = 6.63153e-07, Final residual = 6.63153e-07, No Iterations 0
time step continuity errors : sum local = 5.17753e-07, global = 2.11408e-07, cumulative = 6.63215e-05
DILUPBiCG:  Solving for epsilon, Initial residual = 0, Final residual = 0, No Iterations 0
DILUPBiCG:  Solving for k, Initial residual = 0.834904, Final residual = 2.52655e-07, No Iterations 3
ExecutionTime = 2.1 s  ClockTime = 2 s

Time = 0.07

Courant Number mean: 0.0857779 max: 0.118716

 Coupling...
Starting up LIGGGHTS
Executing command: 'run 500    '
run 500    
Setting up run at Tue Dec  4 22:13:36 2018

Memory usage per processor = 9.13486 Mbytes
    Step    Atoms         KinEng            rke       heattran         Volume 
  156501     1005  4.2381666e-06   1.055672e-05      840.47342          0.011 
CFD Coupling established at step 156600
CFD Coupling established at step 156700
CFD Coupling established at step 156800
CFD Coupling established at step 156900
CFD Coupling established at step 157000
  157000     1005   4.643761e-06  1.0680278e-05      832.20933          0.011 
  157001     1005  4.6437862e-06  1.0680735e-05      832.19277          0.011 
Loop time of 0.141788 on 2 procs for 500 steps with 1005 atoms, finish time Tue Dec  4 22:13:37 2018


Pair  time (%) = 0.0682 (48.1)
Neigh time (%) = 0 (0)
Comm  time (%) = 0.021354 (15.0605)
Outpt time (%) = 0.000124938 (0.0881158)
Other time (%) = 0.052109 (36.7514)

Nlocal:    502.5 ave 546 max 459 min
Histogram: 1 0 0 0 0 0 0 0 0 1
Nghost:    32 ave 33 max 31 min
Histogram: 1 0 0 0 0 0 0 0 0 1
Neighs:    2841.5 ave 3099 max 2584 min
Histogram: 1 0 0 0 0 0 0 0 0 1

Total # of neighbors = 5683
Ave neighs/atom = 5.65473
Neighbor list builds = 0
Dangerous builds = 0
Executing command: 'set region total property/atom Temp 600.000000 '
set region total property/atom Temp 600.000000 
Setting atom values ...
  1005 settings made for property/atom
LIGGGHTS finished

 timeStepFraction() = 1
update Ksl.internalField()

Solver level total Eulerian momentum exchange:
  TotalForceImp:  (-0.000781356 -0.0647173 -23.9672)
  Warning, these values are based on latest Ksl and Us but prev. iteration U!

total convective particle-fluid heat flux [W] (Eulerian) = 1649.46
DILUPBiCG:  Solving for T, Initial residual = 0.0262708, Final residual = 8.80789e-07, No Iterations 2
DILUPBiCG:  Solving for Ux, Initial residual = 0.00232162, Final residual = 8.59322e-06, No Iterations 1
DILUPBiCG:  Solving for Uy, Initial residual = 0.00152053, Final residual = 6.79373e-06, No Iterations 1
DILUPBiCG:  Solving for Uz, Initial residual = 0.000927209, Final residual = 5.99081e-07, No Iterations 1
DICPCG:  Solving for p, Initial residual = 4.25831e-05, Final residual = 3.84886e-06, No Iterations 3
time step continuity errors : sum local = 3.00492e-06, global = -2.11269e-07, cumulative = 6.61102e-05
DICPCG:  Solving for p, Initial residual = 4.06343e-06, Final residual = 9.49697e-07, No Iterations 19
time step continuity errors : sum local = 7.4145e-07, global = -5.68232e-08, cumulative = 6.60534e-05
DICPCG:  Solving for p, Initial residual = 9.90486e-07, Final residual = 9.90486e-07, No Iterations 0
time step continuity errors : sum local = 7.73184e-07, global = -4.01323e-08, cumulative = 6.60133e-05
DICPCG:  Solving for p, Initial residual = 9.92464e-07, Final residual = 9.92464e-07, No Iterations 0
time step continuity errors : sum local = 7.74728e-07, global = -3.9322e-08, cumulative = 6.59739e-05
DILUPBiCG:  Solving for epsilon, Initial residual = 0, Final residual = 0, No Iterations 0
DILUPBiCG:  Solving for k, Initial residual = 0.817446, Final residual = 6.18975e-06, No Iterations 3
ExecutionTime = 2.26 s  ClockTime = 3 s

Time = 0.075

Courant Number mean: 0.0858045 max: 0.119984

 Coupling...
Starting up LIGGGHTS
Executing command: 'run 500    '
run 500    
Setting up run at Tue Dec  4 22:13:37 2018

Memory usage per processor = 9.13486 Mbytes
    Step    Atoms         KinEng            rke       heattran         Volume 
  157001     1005  4.6437862e-06  1.0680735e-05      840.47342          0.011 
CFD Coupling established at step 157100
CFD Coupling established at step 157200
CFD Coupling established at step 157300
CFD Coupling established at step 157400
CFD Coupling established at step 157500
  157501     1005   3.575296e-06  1.0224073e-05      832.22612          0.011 
Loop time of 0.140576 on 2 procs for 500 steps with 1005 atoms, finish time Tue Dec  4 22:13:37 2018


Pair  time (%) = 0.0676448 (48.1197)
Neigh time (%) = 0 (0)
Comm  time (%) = 0.0207971 (14.7942)
Outpt time (%) = 3.1547e-05 (0.0224412)
Other time (%) = 0.0521026 (37.0637)

Nlocal:    502.5 ave 546 max 459 min
Histogram: 1 0 0 0 0 0 0 0 0 1
Nghost:    32 ave 33 max 31 min
Histogram: 1 0 0 0 0 0 0 0 0 1
Neighs:    2841.5 ave 3099 max 2584 min
Histogram: 1 0 0 0 0 0 0 0 0 1

Total # of neighbors = 5683
Ave neighs/atom = 5.65473
Neighbor list builds = 0
Dangerous builds = 0
Executing command: 'set region total property/atom Temp 600.000000 '
set region total property/atom Temp 600.000000 
Setting atom values ...
  1005 settings made for property/atom
LIGGGHTS finished

 timeStepFraction() = 1
update Ksl.internalField()

Solver level total Eulerian momentum exchange:
  TotalForceImp:  (-0.00113884 -0.0646043 -23.9627)
  Warning, these values are based on latest Ksl and Us but prev. iteration U!

total convective particle-fluid heat flux [W] (Eulerian) = 1642.9
DILUPBiCG:  Solving for T, Initial residual = 0.0244768, Final residual = 1.54172e-09, No Iterations 4
DILUPBiCG:  Solving for Ux, Initial residual = 0.00197423, Final residual = 2.7515e-06, No Iterations 1
DILUPBiCG:  Solving for Uy, Initial residual = 0.00136981, Final residual = 1.85366e-06, No Iterations 1
DILUPBiCG:  Solving for Uz, Initial residual = 0.00087029, Final residual = 2.11627e-06, No Iterations 1
DICPCG:  Solving for p, Initial residual = 3.65771e-05, Final residual = 2.35099e-06, No Iterations 3
time step continuity errors : sum local = 1.83967e-06, global = 3.12215e-09, cumulative = 6.59771e-05
DICPCG:  Solving for p, Initial residual = 2.67757e-06, Final residual = 5.40346e-07, No Iterations 7
time step continuity errors : sum local = 4.22821e-07, global = 5.54406e-08, cumulative = 6.60325e-05
DICPCG:  Solving for p, Initial residual = 5.29032e-07, Final residual = 5.29032e-07, No Iterations 0
time step continuity errors : sum local = 4.13971e-07, global = 6.33003e-08, cumulative = 6.60958e-05
DICPCG:  Solving for p, Initial residual = 5.26773e-07, Final residual = 5.26773e-07, No Iterations 0
time step continuity errors : sum local = 4.12203e-07, global = 6.37283e-08, cumulative = 6.61595e-05
DILUPBiCG:  Solving for epsilon, Initial residual = 0, Final residual = 0, No Iterations 0
DILUPBiCG:  Solving for k, Initial residual = 0.800333, Final residual = 6.07954e-06, No Iterations 3
ExecutionTime = 2.41 s  ClockTime = 3 s

Time = 0.08

Courant Number mean: 0.0858367 max: 0.121154

 Coupling...
Starting up LIGGGHTS
Executing command: 'run 500    '
run 500    
Setting up run at Tue Dec  4 22:13:37 2018

Memory usage per processor = 9.13486 Mbytes
    Step    Atoms         KinEng            rke       heattran         Volume 
  157501     1005   3.575296e-06  1.0224073e-05      840.47342          0.011 
CFD Coupling established at step 157600
CFD Coupling established at step 157700
CFD Coupling established at step 157800
CFD Coupling established at step 157900
CFD Coupling established at step 158000
  158000     1005  2.6585999e-06  9.6682011e-06      832.27536          0.011 
  158001     1005  2.6583358e-06  9.6680275e-06      832.25894          0.011 
Loop time of 0.14219 on 2 procs for 500 steps with 1005 atoms, finish time Tue Dec  4 22:13:37 2018


Pair  time (%) = 0.0725025 (50.9898)
Neigh time (%) = 0 (0)
Comm  time (%) = 0.0188242 (13.2388)
Outpt time (%) = 0.000109491 (0.0770032)
Other time (%) = 0.050754 (35.6944)

Nlocal:    502.5 ave 546 max 459 min
Histogram: 1 0 0 0 0 0 0 0 0 1
Nghost:    32 ave 33 max 31 min
Histogram: 1 0 0 0 0 0 0 0 0 1
Neighs:    2841.5 ave 3099 max 2584 min
Histogram: 1 0 0 0 0 0 0 0 0 1

Total # of neighbors = 5683
Ave neighs/atom = 5.65473
Neighbor list builds = 0
Dangerous builds = 0
Executing command: 'set region total property/atom Temp 600.000000 '
set region total property/atom Temp 600.000000 
Setting atom values ...
  1005 settings made for property/atom
LIGGGHTS finished

 timeStepFraction() = 1
update Ksl.internalField()

Solver level total Eulerian momentum exchange:
  TotalForceImp:  (-0.000948737 -0.0644368 -23.9662)
  Warning, these values are based on latest Ksl and Us but prev. iteration U!

total convective particle-fluid heat flux [W] (Eulerian) = 1636.5
DILUPBiCG:  Solving for T, Initial residual = 0.0229357, Final residual = 1.42947e-09, No Iterations 4
DILUPBiCG:  Solving for Ux, Initial residual = 0.00202407, Final residual = 3.37165e-06, No Iterations 1
DILUPBiCG:  Solving for Uy, Initial residual = 0.00137118, Final residual = 9.77794e-07, No Iterations 1
DILUPBiCG:  Solving for Uz, Initial residual = 0.000758057, Final residual = 2.97901e-06, No Iterations 1
DICPCG:  Solving for p, Initial residual = 3.30917e-05, Final residual = 3.08156e-06, No Iterations 3
time step continuity errors : sum local = 2.42278e-06, global = 6.73903e-07, cumulative = 6.68334e-05
DICPCG:  Solving for p, Initial residual = 3.45715e-06, Final residual = 4.97205e-07, No Iterations 5
time step continuity errors : sum local = 3.90908e-07, global = 7.32826e-08, cumulative = 6.69067e-05
DICPCG:  Solving for p, Initial residual = 4.56814e-07, Final residual = 4.56814e-07, No Iterations 0
time step continuity errors : sum local = 3.59152e-07, global = 3.89104e-08, cumulative = 6.69456e-05
DICPCG:  Solving for p, Initial residual = 4.5584e-07, Final residual = 4.5584e-07, No Iterations 0
time step continuity errors : sum local = 3.58386e-07, global = 3.78276e-08, cumulative = 6.69835e-05
DILUPBiCG:  Solving for epsilon, Initial residual = 0, Final residual = 0, No Iterations 0
DILUPBiCG:  Solving for k, Initial residual = 0.78357, Final residual = 5.98934e-06, No Iterations 3
ExecutionTime = 2.56 s  ClockTime = 3 s

Time = 0.085

Courant Number mean: 0.0858547 max: 0.122208

 Coupling...
Starting up LIGGGHTS
Executing command: 'run 500    '
run 500    
Setting up run at Tue Dec  4 22:13:37 2018

Memory usage per processor = 9.13486 Mbytes
    Step    Atoms         KinEng            rke       heattran         Volume 
  158001     1005  2.6583358e-06  9.6680275e-06      840.47342          0.011 
CFD Coupling established at step 158100
CFD Coupling established at step 158200
CFD Coupling established at step 158300
CFD Coupling established at step 158400
CFD Coupling established at step 158500
  158501     1005  2.8535513e-06  9.6824873e-06       832.2909          0.011 
Loop time of 0.139197 on 2 procs for 500 steps with 1005 atoms, finish time Tue Dec  4 22:13:37 2018


Pair  time (%) = 0.0668809 (48.0476)
Neigh time (%) = 0 (0)
Comm  time (%) = 0.0210843 (15.1471)
Outpt time (%) = 3.18135e-05 (0.022855)
Other time (%) = 0.0512001 (36.7824)

Nlocal:    502.5 ave 546 max 459 min
Histogram: 1 0 0 0 0 0 0 0 0 1
Nghost:    32 ave 33 max 31 min
Histogram: 1 0 0 0 0 0 0 0 0 1
Neighs:    2841 ave 3099 max 2583 min
Histogram: 1 0 0 0 0 0 0 0 0 1

Total # of neighbors = 5682
Ave neighs/atom = 5.65373
Neighbor list builds = 0
Dangerous builds = 0
Executing command: 'set region total property/atom Temp 600.000000 '
set region total property/atom Temp 600.000000 
Setting atom values ...
  1005 settings made for property/atom
LIGGGHTS finished

 timeStepFraction() = 1
update Ksl.internalField()

Solver level total Eulerian momentum exchange:
  TotalForceImp:  (-0.000686625 -0.0645952 -23.9686)
  Warning, these values are based on latest Ksl and Us but prev. iteration U!

total convective particle-fluid heat flux [W] (Eulerian) = 1630.21
DILUPBiCG:  Solving for T, Initial residual = 0.0215823, Final residual = 1.33971e-09, No Iterations 4
DILUPBiCG:  Solving for Ux, Initial residual = 0.00180979, Final residual = 2.56964e-06, No Iterations 1
DILUPBiCG:  Solving for Uy, Initial residual = 0.00126127, Final residual = 7.17613e-07, No Iterations 1
DILUPBiCG:  Solving for Uz, Initial residual = 0.000752936, Final residual = 8.62154e-07, No Iterations 1
DICPCG:  Solving for p, Initial residual = 2.72047e-05, Final residual = 1.6046e-06, No Iterations 3
time step continuity errors : sum local = 1.26421e-06, global = 3.06155e-07, cumulative = 6.72896e-05
DICPCG:  Solving for p, Initial residual = 1.92005e-06, Final residual = 7.45006e-07, No Iterations 5
time step continuity errors : sum local = 5.86958e-07, global = -1.61191e-07, cumulative = 6.71284e-05
DICPCG:  Solving for p, Initial residual = 7.09785e-07, Final residual = 7.09785e-07, No Iterations 0
time step continuity errors : sum local = 5.59208e-07, global = -1.85387e-07, cumulative = 6.6943e-05
DICPCG:  Solving for p, Initial residual = 7.10261e-07, Final residual = 7.10261e-07, No Iterations 0
time step continuity errors : sum local = 5.59583e-07, global = -1.85984e-07, cumulative = 6.67571e-05
DILUPBiCG:  Solving for epsilon, Initial residual = 0, Final residual = 0, No Iterations 0
DILUPBiCG:  Solving for k, Initial residual = 0.764815, Final residual = 5.90672e-06, No Iterations 3
ExecutionTime = 2.71 s  ClockTime = 3 s

Time = 0.09

Courant Number mean: 0.0858648 max: 0.123163

 Coupling...
Starting up LIGGGHTS
Executing command: 'run 500    '
run 500    
Setting up run at Tue Dec  4 22:13:37 2018

Memory usage per processor = 9.13486 Mbytes
    Step    Atoms         KinEng            rke       heattran         Volume 
  158501     1005  2.8535513e-06  9.6824873e-06      840.47342          0.011 
CFD Coupling established at step 158600
CFD Coupling established at step 158700
CFD Coupling established at step 158800
CFD Coupling established at step 158900
CFD Coupling established at step 159000
  159000     1005  2.7417524e-06   9.509081e-06      832.33869          0.011 
  159001     1005  2.7409019e-06  9.5086216e-06      832.32239          0.011 
Loop time of 0.140457 on 2 procs for 500 steps with 1005 atoms, finish time Tue Dec  4 22:13:37 2018


Pair  time (%) = 0.0670517 (47.7383)
Neigh time (%) = 0 (0)
Comm  time (%) = 0.0219786 (15.648)
Outpt time (%) = 8.30175e-05 (0.0591053)
Other time (%) = 0.0513435 (36.5546)

Nlocal:    502.5 ave 546 max 459 min
Histogram: 1 0 0 0 0 0 0 0 0 1
Nghost:    32 ave 33 max 31 min
Histogram: 1 0 0 0 0 0 0 0 0 1
Neighs:    2841.5 ave 3099 max 2584 min
Histogram: 1 0 0 0 0 0 0 0 0 1

Total # of neighbors = 5683
Ave neighs/atom = 5.65473
Neighbor list builds = 0
Dangerous builds = 0
Executing command: 'set region total property/atom Temp 600.000000 '
set region total property/atom Temp 600.000000 
Setting atom values ...
  1005 settings made for property/atom
LIGGGHTS finished

 timeStepFraction() = 1
update Ksl.internalField()

Solver level total Eulerian momentum exchange:
  TotalForceImp:  (-0.00101366 -0.0647331 -23.9671)
  Warning, these values are based on latest Ksl and Us but prev. iteration U!

total convective particle-fluid heat flux [W] (Eulerian) = 1623.99
DILUPBiCG:  Solving for T, Initial residual = 0.0203588, Final residual = 1.24886e-09, No Iterations 4
DILUPBiCG:  Solving for Ux, Initial residual = 0.00166367, Final residual = 1.61185e-06, No Iterations 1
DILUPBiCG:  Solving for Uy, Initial residual = 0.00120685, Final residual = 9.13351e-07, No Iterations 1
DILUPBiCG:  Solving for Uz, Initial residual = 0.000638314, Final residual = 3.23826e-07, No Iterations 1
DICPCG:  Solving for p, Initial residual = 2.56099e-05, Final residual = 1.24484e-06, No Iterations 7
time step continuity errors : sum local = 9.80758e-07, global = -1.59209e-07, cumulative = 6.65978e-05
DICPCG:  Solving for p, Initial residual = 1.76728e-06, Final residual = 8.35047e-07, No Iterations 1
time step continuity errors : sum local = 6.57903e-07, global = -1.73093e-07, cumulative = 6.64248e-05
DICPCG:  Solving for p, Initial residual = 8.31329e-07, Final residual = 8.31329e-07, No Iterations 0
time step continuity errors : sum local = 6.54974e-07, global = -1.72427e-07, cumulative = 6.62523e-05
DICPCG:  Solving for p, Initial residual = 8.3142e-07, Final residual = 8.3142e-07, No Iterations 0
time step continuity errors : sum local = 6.55045e-07, global = -1.72318e-07, cumulative = 6.608e-05
DILUPBiCG:  Solving for epsilon, Initial residual = 0, Final residual = 0, No Iterations 0
DILUPBiCG:  Solving for k, Initial residual = 0.744916, Final residual = 5.77209e-06, No Iterations 3
ExecutionTime = 2.86 s  ClockTime = 3 s

Time = 0.095

Courant Number mean: 0.0858803 max: 0.124029

 Coupling...
Starting up LIGGGHTS
Executing command: 'run 500    '
run 500    
Setting up run at Tue Dec  4 22:13:37 2018

Memory usage per processor = 9.13486 Mbytes
    Step    Atoms         KinEng            rke       heattran         Volume 
  159001     1005  2.7409019e-06  9.5086216e-06      840.47342          0.011 
CFD Coupling established at step 159100
CFD Coupling established at step 159200
CFD Coupling established at step 159300
CFD Coupling established at step 159400
CFD Coupling established at step 159500
  159501     1005  2.2694626e-06  9.1585713e-06      832.35348          0.011 
Loop time of 0.134028 on 2 procs for 500 steps with 1005 atoms, finish time Tue Dec  4 22:13:37 2018


Pair  time (%) = 0.0643449 (48.0085)
Neigh time (%) = 0 (0)
Comm  time (%) = 0.0198945 (14.8435)
Outpt time (%) = 3.1779e-05 (0.0237107)
Other time (%) = 0.049757 (37.1243)

Nlocal:    502.5 ave 546 max 459 min
Histogram: 1 0 0 0 0 0 0 0 0 1
Nghost:    32 ave 33 max 31 min
Histogram: 1 0 0 0 0 0 0 0 0 1
Neighs:    2842 ave 3099 max 2585 min
Histogram: 1 0 0 0 0 0 0 0 0 1

Total # of neighbors = 5684
Ave neighs/atom = 5.65572
Neighbor list builds = 0
Dangerous builds = 0
Executing command: 'set region total property/atom Temp 600.000000 '
set region total property/atom Temp 600.000000 
Setting atom values ...
  1005 settings made for property/atom
LIGGGHTS finished

 timeStepFraction() = 1
update Ksl.internalField()

Solver level total Eulerian momentum exchange:
  TotalForceImp:  (-0.00135604 -0.0646195 -23.9645)
  Warning, these values are based on latest Ksl and Us but prev. iteration U!

total convective particle-fluid heat flux [W] (Eulerian) = 1617.87
DILUPBiCG:  Solving for T, Initial residual = 0.019266, Final residual = 1.16481e-09, No Iterations 4
DILUPBiCG:  Solving for Ux, Initial residual = 0.00161148, Final residual = 1.23256e-06, No Iterations 1
DILUPBiCG:  Solving for Uy, Initial residual = 0.00112465, Final residual = 5.24454e-07, No Iterations 1
DILUPBiCG:  Solving for Uz, Initial residual = 0.000651329, Final residual = 7.26696e-07, No Iterations 1
DICPCG:  Solving for p, Initial residual = 2.61401e-05, Final residual = 2.5126e-06, No Iterations 6
time step continuity errors : sum local = 1.97957e-06, global = -3.3295e-07, cumulative = 6.57471e-05
DICPCG:  Solving for p, Initial residual = 2.62291e-06, Final residual = 9.35423e-07, No Iterations 1
time step continuity errors : sum local = 7.36986e-07, global = -2.65547e-07, cumulative = 6.54815e-05
DICPCG:  Solving for p, Initial residual = 9.26766e-07, Final residual = 9.26766e-07, No Iterations 0
time step continuity errors : sum local = 7.30166e-07, global = -2.64605e-07, cumulative = 6.52169e-05
DICPCG:  Solving for p, Initial residual = 9.27741e-07, Final residual = 9.27741e-07, No Iterations 0
time step continuity errors : sum local = 7.30934e-07, global = -2.64621e-07, cumulative = 6.49523e-05
DILUPBiCG:  Solving for epsilon, Initial residual = 0, Final residual = 0, No Iterations 0
DILUPBiCG:  Solving for k, Initial residual = 0.725627, Final residual = 5.67962e-06, No Iterations 3
ExecutionTime = 3.01 s  ClockTime = 3 s

Time = 0.1

Courant Number mean: 0.0859063 max: 0.124999

 Coupling...
Starting up LIGGGHTS
Executing command: 'run 500    '
run 500    
Setting up run at Tue Dec  4 22:13:37 2018

Memory usage per processor = 9.13486 Mbytes
    Step    Atoms         KinEng            rke       heattran         Volume 
  159501     1005  2.2694626e-06  9.1585713e-06      840.47342          0.011 
CFD Coupling established at step 159600
CFD Coupling established at step 159700
CFD Coupling established at step 159800
CFD Coupling established at step 159900
CFD Coupling established at step 160000
  160000     1005  2.0269752e-06  8.6622535e-06      832.40024          0.011 
  160001     1005  2.0266618e-06   8.661436e-06      832.38406          0.011 
Loop time of 0.140366 on 2 procs for 500 steps with 1005 atoms, finish time Tue Dec  4 22:13:38 2018


Pair  time (%) = 0.0654507 (46.6287)
Neigh time (%) = 0 (0)
Comm  time (%) = 0.0206945 (14.7433)
Outpt time (%) = 0.00370656 (2.64065)
Other time (%) = 0.050514 (35.9874)

Nlocal:    502.5 ave 546 max 459 min
Histogram: 1 0 0 0 0 0 0 0 0 1
Nghost:    32 ave 33 max 31 min
Histogram: 1 0 0 0 0 0 0 0 0 1
Neighs:    2841.5 ave 3099 max 2584 min
Histogram: 1 0 0 0 0 0 0 0 0 1

Total # of neighbors = 5683
Ave neighs/atom = 5.65473
Neighbor list builds = 0
Dangerous builds = 0
Executing command: 'set region total property/atom Temp 600.000000 '
set region total property/atom Temp 600.000000 
Setting atom values ...
  1005 settings made for property/atom
LIGGGHTS finished

 timeStepFraction() = 1
update Ksl.internalField()

Solver level total Eulerian momentum exchange:
  TotalForceImp:  (-0.00109881 -0.0645277 -23.9641)
  Warning, these values are based on latest Ksl and Us but prev. iteration U!

total convective particle-fluid heat flux [W] (Eulerian) = 1611.88
DILUPBiCG:  Solving for T, Initial residual = 0.0182909, Final residual = 1.09016e-09, No Iterations 4
DILUPBiCG:  Solving for Ux, Initial residual = 0.00157474, Final residual = 7.73411e-07, No Iterations 1
DILUPBiCG:  Solving for Uy, Initial residual = 0.00108151, Final residual = 6.15801e-07, No Iterations 1
DILUPBiCG:  Solving for Uz, Initial residual = 0.000598532, Final residual = 4.11981e-07, No Iterations 1
DICPCG:  Solving for p, Initial residual = 2.57445e-05, Final residual = 1.54186e-06, No Iterations 2
time step continuity errors : sum local = 1.21475e-06, global = -3.69236e-07, cumulative = 6.45831e-05
DICPCG:  Solving for p, Initial residual = 1.75358e-06, Final residual = 8.69586e-07, No Iterations 1
time step continuity errors : sum local = 6.85099e-07, global = -3.41815e-07, cumulative = 6.42412e-05
DICPCG:  Solving for p, Initial residual = 8.85927e-07, Final residual = 8.85927e-07, No Iterations 0
time step continuity errors : sum local = 6.97973e-07, global = -3.41767e-07, cumulative = 6.38995e-05
DICPCG:  Solving for p, Initial residual = 8.85797e-07, Final residual = 8.85797e-07, No Iterations 0
time step continuity errors : sum local = 6.97871e-07, global = -3.4182e-07, cumulative = 6.35576e-05
DILUPBiCG:  Solving for epsilon, Initial residual = 0, Final residual = 0, No Iterations 0
DILUPBiCG:  Solving for k, Initial residual = 0.706964, Final residual = 5.48781e-06, No Iterations 3
ExecutionTime = 3.16 s  ClockTime = 4 s

Time = 0.105

Courant Number mean: 0.0859458 max: 0.126788

 Coupling...
Starting up LIGGGHTS
Executing command: 'run 500    '
run 500    
Setting up run at Tue Dec  4 22:13:38 2018

Memory usage per processor = 10.3792 Mbytes
    Step    Atoms         KinEng            rke       heattran         Volume 
  160001     1005  2.0266618e-06   8.661436e-06      840.47342          0.011 
CFD Coupling established at step 160100
CFD Coupling established at step 160200
CFD Coupling established at step 160300
CFD Coupling established at step 160400
CFD Coupling established at step 160500
  160501     1005  1.8524487e-06  8.3462848e-06      832.41402          0.011 
Loop time of 0.136246 on 2 procs for 500 steps with 1005 atoms, finish time Tue Dec  4 22:13:38 2018


Pair  time (%) = 0.0658546 (48.335)
Neigh time (%) = 0 (0)
Comm  time (%) = 0.0198752 (14.5877)
Outpt time (%) = 3.279e-05 (0.0240667)
Other time (%) = 0.0504837 (37.0533)

Nlocal:    502.5 ave 546 max 459 min
Histogram: 1 0 0 0 0 0 0 0 0 1
Nghost:    32 ave 33 max 31 min
Histogram: 1 0 0 0 0 0 0 0 0 1
Neighs:    2841.5 ave 3099 max 2584 min
Histogram: 1 0 0 0 0 0 0 0 0 1

Total # of neighbors = 5683
Ave neighs/atom = 5.65473
Neighbor list builds = 0
Dangerous builds = 0
Executing command: 'set region total property/atom Temp 600.000000 '
set region total property/atom Temp 600.000000 
Setting atom values ...
  1005 settings made for property/atom
LIGGGHTS finished

 timeStepFraction() = 1
update Ksl.internalField()

Solver level total Eulerian momentum exchange:
  TotalForceImp:  (-0.000637427 -0.0646743 -23.9656)
  Warning, these values are based on latest Ksl and Us but prev. iteration U!

total convective particle-fluid heat flux [W] (Eulerian) = 1606.01
DILUPBiCG:  Solving for T, Initial residual = 0.0174255, Final residual = 3.11221e-09, No Iterations 4
[...]
DICPCG:  Solving for p, Initial residual = 5.29634e-07, Final residual = 5.29634e-07, No Iterations 0
time step continuity errors : sum local = 4.19949e-07, global = -3.47986e-07, cumulative = 9.282e-05
DILUPBiCG:  Solving for epsilon, Initial residual = 0, Final residual = 0, No Iterations 0
DILUPBiCG:  Solving for k, Initial residual = 0.0351624, Final residual = 5.95238e-06, No Iterations 2
ExecutionTime = 47.73 s  ClockTime = 48 s

Time = 1.475

Courant Number mean: 0.0862086 max: 0.143337

 Coupling...
Starting up LIGGGHTS
Executing command: 'run 500    '
run 500    
Setting up run at Tue Dec  4 22:14:22 2018

Memory usage per processor = 10.3792 Mbytes
    Step    Atoms         KinEng            rke       heattran         Volume 
  297001     1005  1.2495401e-06   6.876611e-06      840.47342          0.011 
CFD Coupling established at step 297100
CFD Coupling established at step 297200
CFD Coupling established at step 297300
CFD Coupling established at step 297400
CFD Coupling established at step 297500
  297501     1005   1.308835e-06  7.1994747e-06      833.40821          0.011 
Loop time of 0.152445 on 2 procs for 500 steps with 1005 atoms, finish time Tue Dec  4 22:14:22 2018


Pair  time (%) = 0.0713716 (46.8178)
Neigh time (%) = 0 (0)
Comm  time (%) = 0.0269206 (17.6592)
Outpt time (%) = 6.1848e-05 (0.0405706)
Other time (%) = 0.0540913 (35.4824)

Nlocal:    502.5 ave 546 max 459 min
Histogram: 1 0 0 0 0 0 0 0 0 1
Nghost:    32 ave 33 max 31 min
Histogram: 1 0 0 0 0 0 0 0 0 1
Neighs:    2841 ave 3098 max 2584 min
Histogram: 1 0 0 0 0 0 0 0 0 1

Total # of neighbors = 5682
Ave neighs/atom = 5.65373
Neighbor list builds = 0
Dangerous builds = 0
Executing command: 'set region total property/atom Temp 600.000000 '
set region total property/atom Temp 600.000000 
Setting atom values ...
  1005 settings made for property/atom
LIGGGHTS finished

 timeStepFraction() = 1
update Ksl.internalField()

Solver level total Eulerian momentum exchange:
  TotalForceImp:  (-0.00023678 -0.0651589 -23.9702)
  Warning, these values are based on latest Ksl and Us but prev. iteration U!

total convective particle-fluid heat flux [W] (Eulerian) = 1413.04
DILUPBiCG:  Solving for T, Initial residual = 7.10646e-06, Final residual = 2.76801e-08, No Iterations 1
DILUPBiCG:  Solving for Ux, Initial residual = 1.46959e-05, Final residual = 4.76274e-09, No Iterations 1
DILUPBiCG:  Solving for Uy, Initial residual = 8.4885e-06, Final residual = 8.4885e-06, No Iterations 0
DILUPBiCG:  Solving for Uz, Initial residual = 5.74905e-07, Final residual = 5.74905e-07, No Iterations 0
DICPCG:  Solving for p, Initial residual = 1.13531e-06, Final residual = 5.00282e-07, No Iterations 1
time step continuity errors : sum local = 3.96676e-07, global = -3.5936e-07, cumulative = 9.24606e-05
DICPCG:  Solving for p, Initial residual = 5.20964e-07, Final residual = 5.20964e-07, No Iterations 0
time step continuity errors : sum local = 4.13075e-07, global = -3.59242e-07, cumulative = 9.21014e-05
DICPCG:  Solving for p, Initial residual = 5.22282e-07, Final residual = 5.22282e-07, No Iterations 0
time step continuity errors : sum local = 4.1412e-07, global = -3.59246e-07, cumulative = 9.17421e-05
DICPCG:  Solving for p, Initial residual = 5.22348e-07, Final residual = 5.22348e-07, No Iterations 0
time step continuity errors : sum local = 4.14172e-07, global = -3.59247e-07, cumulative = 9.13829e-05
DILUPBiCG:  Solving for epsilon, Initial residual = 0, Final residual = 0, No Iterations 0
DILUPBiCG:  Solving for k, Initial residual = 0.0350796, Final residual = 5.94455e-06, No Iterations 2
ExecutionTime = 47.9 s  ClockTime = 48 s

Time = 1.48

Courant Number mean: 0.0862082 max: 0.143337

 Coupling...
Starting up LIGGGHTS
Executing command: 'run 500    '
run 500    
Setting up run at Tue Dec  4 22:14:22 2018

Memory usage per processor = 10.3792 Mbytes
    Step    Atoms         KinEng            rke       heattran         Volume 
  297501     1005   1.308835e-06  7.1994747e-06      840.47342          0.011 
CFD Coupling established at step 297600
CFD Coupling established at step 297700
CFD Coupling established at step 297800
CFD Coupling established at step 297900
CFD Coupling established at step 298000
  298000     1005    1.36153e-06  7.4867124e-06      833.42234          0.011 
  298001     1005  1.3616288e-06  7.4872506e-06      833.40821          0.011 
Loop time of 0.139503 on 2 procs for 500 steps with 1005 atoms, finish time Tue Dec  4 22:14:23 2018


Pair  time (%) = 0.0672018 (48.1723)
Neigh time (%) = 0 (0)
Comm  time (%) = 0.0202471 (14.5137)
Outpt time (%) = 0.000120236 (0.0861891)
Other time (%) = 0.0519339 (37.2278)

Nlocal:    502.5 ave 546 max 459 min
Histogram: 1 0 0 0 0 0 0 0 0 1
Nghost:    32 ave 33 max 31 min
Histogram: 1 0 0 0 0 0 0 0 0 1
Neighs:    2841 ave 3098 max 2584 min
Histogram: 1 0 0 0 0 0 0 0 0 1

Total # of neighbors = 5682
Ave neighs/atom = 5.65373
Neighbor list builds = 0
Dangerous builds = 0
Executing command: 'set region total property/atom Temp 600.000000 '
set region total property/atom Temp 600.000000 
Setting atom values ...
  1005 settings made for property/atom
LIGGGHTS finished

 timeStepFraction() = 1
update Ksl.internalField()

Solver level total Eulerian momentum exchange:
  TotalForceImp:  (-0.00023387 -0.0651613 -23.9702)
  Warning, these values are based on latest Ksl and Us but prev. iteration U!

total convective particle-fluid heat flux [W] (Eulerian) = 1413.04
DILUPBiCG:  Solving for T, Initial residual = 6.80298e-06, Final residual = 2.77204e-08, No Iterations 1
DILUPBiCG:  Solving for Ux, Initial residual = 8.27223e-06, Final residual = 8.27223e-06, No Iterations 0
DILUPBiCG:  Solving for Uy, Initial residual = 4.95078e-06, Final residual = 4.95078e-06, No Iterations 0
DILUPBiCG:  Solving for Uz, Initial residual = 4.15803e-07, Final residual = 4.15803e-07, No Iterations 0
DICPCG:  Solving for p, Initial residual = 8.32182e-07, Final residual = 8.32182e-07, No Iterations 0
time step continuity errors : sum local = 6.59842e-07, global = -3.69562e-07, cumulative = 9.10133e-05
DICPCG:  Solving for p, Initial residual = 8.44068e-07, Final residual = 8.44068e-07, No Iterations 0
time step continuity errors : sum local = 6.69266e-07, global = -3.69453e-07, cumulative = 9.06439e-05
DICPCG:  Solving for p, Initial residual = 8.44794e-07, Final residual = 8.44794e-07, No Iterations 0
time step continuity errors : sum local = 6.69841e-07, global = -3.69458e-07, cumulative = 9.02744e-05
DICPCG:  Solving for p, Initial residual = 8.44833e-07, Final residual = 8.44833e-07, No Iterations 0
time step continuity errors : sum local = 6.69873e-07, global = -3.69459e-07, cumulative = 8.99049e-05
DILUPBiCG:  Solving for epsilon, Initial residual = 0, Final residual = 0, No Iterations 0
DILUPBiCG:  Solving for k, Initial residual = 0.0349979, Final residual = 5.93675e-06, No Iterations 2
ExecutionTime = 48.05 s  ClockTime = 49 s

Time = 1.485

Courant Number mean: 0.086208 max: 0.143337

 Coupling...
Starting up LIGGGHTS
Executing command: 'run 500    '
run 500    
Setting up run at Tue Dec  4 22:14:23 2018

Memory usage per processor = 10.3792 Mbytes
    Step    Atoms         KinEng            rke       heattran         Volume 
  298001     1005  1.3616288e-06  7.4872506e-06      840.47342          0.011 
CFD Coupling established at step 298100
CFD Coupling established at step 298200
CFD Coupling established at step 298300
CFD Coupling established at step 298400
CFD Coupling established at step 298500
  298501     1005  1.4072927e-06  7.7365258e-06      833.40822          0.011 
Loop time of 0.143339 on 2 procs for 500 steps with 1005 atoms, finish time Tue Dec  4 22:14:23 2018


Pair  time (%) = 0.0696246 (48.5735)
Neigh time (%) = 0 (0)
Comm  time (%) = 0.0213478 (14.8933)
Outpt time (%) = 3.02135e-05 (0.0210784)
Other time (%) = 0.052336 (36.5121)

Nlocal:    502.5 ave 546 max 459 min
Histogram: 1 0 0 0 0 0 0 0 0 1
Nghost:    32 ave 33 max 31 min
Histogram: 1 0 0 0 0 0 0 0 0 1
Neighs:    2841 ave 3098 max 2584 min
Histogram: 1 0 0 0 0 0 0 0 0 1

Total # of neighbors = 5682
Ave neighs/atom = 5.65373
Neighbor list builds = 0
Dangerous builds = 0
Executing command: 'set region total property/atom Temp 600.000000 '
set region total property/atom Temp 600.000000 
Setting atom values ...
  1005 settings made for property/atom
LIGGGHTS finished

 timeStepFraction() = 1
update Ksl.internalField()

Solver level total Eulerian momentum exchange:
  TotalForceImp:  (-0.000232817 -0.0651619 -23.9702)
  Warning, these values are based on latest Ksl and Us but prev. iteration U!

total convective particle-fluid heat flux [W] (Eulerian) = 1413.04
DILUPBiCG:  Solving for T, Initial residual = 6.529e-06, Final residual = 2.74386e-08, No Iterations 1
DILUPBiCG:  Solving for Ux, Initial residual = 7.39496e-06, Final residual = 7.39496e-06, No Iterations 0
DILUPBiCG:  Solving for Uy, Initial residual = 4.67574e-06, Final residual = 4.67574e-06, No Iterations 0
DILUPBiCG:  Solving for Uz, Initial residual = 3.62061e-07, Final residual = 3.62061e-07, No Iterations 0
DICPCG:  Solving for p, Initial residual = 1.12036e-06, Final residual = 5.46691e-07, No Iterations 1
time step continuity errors : sum local = 4.33474e-07, global = -3.78486e-07, cumulative = 8.95265e-05
DICPCG:  Solving for p, Initial residual = 5.67441e-07, Final residual = 5.67441e-07, No Iterations 0
time step continuity errors : sum local = 4.49927e-07, global = -3.78363e-07, cumulative = 8.91481e-05
DICPCG:  Solving for p, Initial residual = 5.68576e-07, Final residual = 5.68576e-07, No Iterations 0
time step continuity errors : sum local = 4.50828e-07, global = -3.78367e-07, cumulative = 8.87697e-05
DICPCG:  Solving for p, Initial residual = 5.68624e-07, Final residual = 5.68624e-07, No Iterations 0
time step continuity errors : sum local = 4.50865e-07, global = -3.78368e-07, cumulative = 8.83914e-05
DILUPBiCG:  Solving for epsilon, Initial residual = 0, Final residual = 0, No Iterations 0
DILUPBiCG:  Solving for k, Initial residual = 0.0349175, Final residual = 5.92896e-06, No Iterations 2
ExecutionTime = 48.2 s  ClockTime = 49 s

Time = 1.49

Courant Number mean: 0.0862085 max: 0.143337

 Coupling...
Starting up LIGGGHTS
Executing command: 'run 500    '
run 500    
Setting up run at Tue Dec  4 22:14:23 2018

Memory usage per processor = 10.3792 Mbytes
    Step    Atoms         KinEng            rke       heattran         Volume 
  298501     1005  1.4072927e-06  7.7365258e-06      840.47342          0.011 
CFD Coupling established at step 298600
CFD Coupling established at step 298700
CFD Coupling established at step 298800
CFD Coupling established at step 298900
CFD Coupling established at step 299000
  299000     1005  1.4454169e-06  7.9437721e-06      833.42235          0.011 
  299001     1005   1.445485e-06  7.9441445e-06      833.40822          0.011 
Loop time of 0.150999 on 2 procs for 500 steps with 1005 atoms, finish time Tue Dec  4 22:14:23 2018


Pair  time (%) = 0.0766018 (50.7301)
Neigh time (%) = 0 (0)
Comm  time (%) = 0.021962 (14.5445)
Outpt time (%) = 0.000150603 (0.099738)
Other time (%) = 0.0522843 (34.6257)

Nlocal:    502.5 ave 546 max 459 min
Histogram: 1 0 0 0 0 0 0 0 0 1
Nghost:    32 ave 33 max 31 min
Histogram: 1 0 0 0 0 0 0 0 0 1
Neighs:    2841 ave 3098 max 2584 min
Histogram: 1 0 0 0 0 0 0 0 0 1

Total # of neighbors = 5682
Ave neighs/atom = 5.65373
Neighbor list builds = 0
Dangerous builds = 0
Executing command: 'set region total property/atom Temp 600.000000 '
set region total property/atom Temp 600.000000 
Setting atom values ...
  1005 settings made for property/atom
LIGGGHTS finished

 timeStepFraction() = 1
update Ksl.internalField()

Solver level total Eulerian momentum exchange:
  TotalForceImp:  (-0.000233825 -0.0651612 -23.9702)
  Warning, these values are based on latest Ksl and Us but prev. iteration U!

total convective particle-fluid heat flux [W] (Eulerian) = 1413.04
DILUPBiCG:  Solving for T, Initial residual = 6.30838e-06, Final residual = 2.68738e-08, No Iterations 1
DILUPBiCG:  Solving for Ux, Initial residual = 1.31886e-05, Final residual = 4.37136e-09, No Iterations 1
DILUPBiCG:  Solving for Uy, Initial residual = 8.43846e-06, Final residual = 8.43846e-06, No Iterations 0
DILUPBiCG:  Solving for Uz, Initial residual = 5.35061e-07, Final residual = 5.35061e-07, No Iterations 0
DICPCG:  Solving for p, Initial residual = 1.1392e-06, Final residual = 5.47356e-07, No Iterations 1
time step continuity errors : sum local = 4.34002e-07, global = -3.85975e-07, cumulative = 8.80054e-05
DICPCG:  Solving for p, Initial residual = 5.69989e-07, Final residual = 5.69989e-07, No Iterations 0
time step continuity errors : sum local = 4.51948e-07, global = -3.85841e-07, cumulative = 8.76195e-05
DICPCG:  Solving for p, Initial residual = 5.71368e-07, Final residual = 5.71368e-07, No Iterations 0
time step continuity errors : sum local = 4.53041e-07, global = -3.85844e-07, cumulative = 8.72337e-05
DICPCG:  Solving for p, Initial residual = 5.71438e-07, Final residual = 5.71438e-07, No Iterations 0
time step continuity errors : sum local = 4.53096e-07, global = -3.85845e-07, cumulative = 8.68479e-05
DILUPBiCG:  Solving for epsilon, Initial residual = 0, Final residual = 0, No Iterations 0
DILUPBiCG:  Solving for k, Initial residual = 0.0348382, Final residual = 5.9212e-06, No Iterations 2
ExecutionTime = 48.36 s  ClockTime = 49 s

Time = 1.495

Courant Number mean: 0.0862081 max: 0.143337

 Coupling...
Starting up LIGGGHTS
Executing command: 'run 500    '
run 500    
Setting up run at Tue Dec  4 22:14:23 2018

Memory usage per processor = 10.3792 Mbytes
    Step    Atoms         KinEng            rke       heattran         Volume 
  299001     1005   1.445485e-06  7.9441445e-06      840.47342          0.011 
CFD Coupling established at step 299100
CFD Coupling established at step 299200
CFD Coupling established at step 299300
CFD Coupling established at step 299400
CFD Coupling established at step 299500
  299501     1005  1.4751941e-06  8.1080513e-06      833.40822          0.011 
Loop time of 0.139213 on 2 procs for 500 steps with 1005 atoms, finish time Tue Dec  4 22:14:23 2018


Pair  time (%) = 0.067545 (48.5193)
Neigh time (%) = 0 (0)
Comm  time (%) = 0.0203161 (14.5936)
Outpt time (%) = 5.09035e-05 (0.0365653)
Other time (%) = 0.0513007 (36.8506)

Nlocal:    502.5 ave 546 max 459 min
Histogram: 1 0 0 0 0 0 0 0 0 1
Nghost:    32 ave 33 max 31 min
Histogram: 1 0 0 0 0 0 0 0 0 1
Neighs:    2841 ave 3098 max 2584 min
Histogram: 1 0 0 0 0 0 0 0 0 1

Total # of neighbors = 5682
Ave neighs/atom = 5.65373
Neighbor list builds = 0
Dangerous builds = 0
Executing command: 'set region total property/atom Temp 600.000000 '
set region total property/atom Temp 600.000000 
Setting atom values ...
  1005 settings made for property/atom
LIGGGHTS finished

 timeStepFraction() = 1
update Ksl.internalField()

Solver level total Eulerian momentum exchange:
  TotalForceImp:  (-0.000230528 -0.0651635 -23.9702)
  Warning, these values are based on latest Ksl and Us but prev. iteration U!

total convective particle-fluid heat flux [W] (Eulerian) = 1413.04
DILUPBiCG:  Solving for T, Initial residual = 6.10064e-06, Final residual = 2.60029e-08, No Iterations 1
DILUPBiCG:  Solving for Ux, Initial residual = 7.99111e-06, Final residual = 7.99111e-06, No Iterations 0
DILUPBiCG:  Solving for Uy, Initial residual = 5.44919e-06, Final residual = 5.44919e-06, No Iterations 0
DILUPBiCG:  Solving for Uz, Initial residual = 3.88473e-07, Final residual = 3.88473e-07, No Iterations 0
DICPCG:  Solving for p, Initial residual = 9.12668e-07, Final residual = 9.12668e-07, No Iterations 0
time step continuity errors : sum local = 7.23661e-07, global = -3.92365e-07, cumulative = 8.64555e-05
DICPCG:  Solving for p, Initial residual = 9.26073e-07, Final residual = 9.26073e-07, No Iterations 0
time step continuity errors : sum local = 7.34289e-07, global = -3.9224e-07, cumulative = 8.60632e-05
DICPCG:  Solving for p, Initial residual = 9.26898e-07, Final residual = 9.26898e-07, No Iterations 0
time step continuity errors : sum local = 7.34943e-07, global = -3.92245e-07, cumulative = 8.5671e-05
DICPCG:  Solving for p, Initial residual = 9.26943e-07, Final residual = 9.26943e-07, No Iterations 0
time step continuity errors : sum local = 7.34979e-07, global = -3.92245e-07, cumulative = 8.52788e-05
DILUPBiCG:  Solving for epsilon, Initial residual = 0, Final residual = 0, No Iterations 0
DILUPBiCG:  Solving for k, Initial residual = 0.0347598, Final residual = 5.91342e-06, No Iterations 2
ExecutionTime = 48.51 s  ClockTime = 49 s

Time = 1.5

Courant Number mean: 0.0862078 max: 0.143337

 Coupling...
Starting up LIGGGHTS
Executing command: 'run 500    '
run 500    
Setting up run at Tue Dec  4 22:14:23 2018

Memory usage per processor = 10.3792 Mbytes
    Step    Atoms         KinEng            rke       heattran         Volume 
  299501     1005  1.4751941e-06  8.1080513e-06      840.47342          0.011 
CFD Coupling established at step 299600
CFD Coupling established at step 299700
CFD Coupling established at step 299800
CFD Coupling established at step 299900
CFD Coupling established at step 300000
  300000     1005  1.4965791e-06  8.2256724e-06      833.42236          0.011 
  300001     1005  1.4966135e-06  8.2258611e-06      833.40823          0.011 
Loop time of 0.148 on 2 procs for 500 steps with 1005 atoms, finish time Tue Dec  4 22:14:23 2018


Pair  time (%) = 0.0706664 (47.7475)
Neigh time (%) = 0 (0)
Comm  time (%) = 0.0218275 (14.7483)
Outpt time (%) = 0.0034144 (2.30703)
Other time (%) = 0.0520917 (35.1971)

Nlocal:    502.5 ave 546 max 459 min
Histogram: 1 0 0 0 0 0 0 0 0 1
Nghost:    32 ave 33 max 31 min
Histogram: 1 0 0 0 0 0 0 0 0 1
Neighs:    2841 ave 3098 max 2584 min
Histogram: 1 0 0 0 0 0 0 0 0 1

Total # of neighbors = 5682
Ave neighs/atom = 5.65373
Neighbor list builds = 0
Dangerous builds = 0
Executing command: 'set region total property/atom Temp 600.000000 '
set region total property/atom Temp 600.000000 
Setting atom values ...
  1005 settings made for property/atom
LIGGGHTS finished

 timeStepFraction() = 1
update Ksl.internalField()

Solver level total Eulerian momentum exchange:
  TotalForceImp:  (-0.00022944 -0.0651643 -23.9702)
  Warning, these values are based on latest Ksl and Us but prev. iteration U!

total convective particle-fluid heat flux [W] (Eulerian) = 1413.04
DILUPBiCG:  Solving for T, Initial residual = 5.88621e-06, Final residual = 2.50987e-08, No Iterations 1
DILUPBiCG:  Solving for Ux, Initial residual = 7.13482e-06, Final residual = 7.13482e-06, No Iterations 0
DILUPBiCG:  Solving for Uy, Initial residual = 5.05275e-06, Final residual = 5.05275e-06, No Iterations 0
DILUPBiCG:  Solving for Uz, Initial residual = 3.39212e-07, Final residual = 3.39212e-07, No Iterations 0
DICPCG:  Solving for p, Initial residual = 1.22553e-06, Final residual = 5.61834e-07, No Iterations 1
time step continuity errors : sum local = 4.45482e-07, global = -3.97457e-07, cumulative = 8.48813e-05
DICPCG:  Solving for p, Initial residual = 5.82246e-07, Final residual = 5.82246e-07, No Iterations 0
time step continuity errors : sum local = 4.61667e-07, global = -3.97324e-07, cumulative = 8.4484e-05
DICPCG:  Solving for p, Initial residual = 5.83467e-07, Final residual = 5.83467e-07, No Iterations 0
time step continuity errors : sum local = 4.62635e-07, global = -3.97328e-07, cumulative = 8.40866e-05
DICPCG:  Solving for p, Initial residual = 5.8352e-07, Final residual = 5.8352e-07, No Iterations 0
time step continuity errors : sum local = 4.62677e-07, global = -3.97329e-07, cumulative = 8.36893e-05
DILUPBiCG:  Solving for epsilon, Initial residual = 0, Final residual = 0, No Iterations 0
DILUPBiCG:  Solving for k, Initial residual = 0.0346823, Final residual = 5.90561e-06, No Iterations 2
ExecutionTime = 48.68 s  ClockTime = 49 s

End

Finalising parallel run
