LIGGGHTS (Version LIGGGHTS-PUBLIC 3.8.0, compiled 2018-11-12-23:29:28 by root, git commit 28301df8853491784b1d8b90533ea89b8c6af1e8)
#Particle packing by insertion and successive growing of particles

atom_style	granular
atom_modify	map array
boundary	m m m
newton		off
#echo		both

communicate	single vel yes

units		si

region		reg block 0.0 0.85 0.0 0.85 0.0 0.86 units box
create_box	1 reg
Created orthogonal box = (0 0 0) to (0.85 0.85 0.86)

neighbor	0.002 bin
neigh_modify	delay 0

#Material properties required for new pair styles

fix 		m1 all property/global youngsModulus peratomtype 5.e6
fix 		m2 all property/global poissonsRatio peratomtype 0.45
fix 		m3 all property/global coefficientRestitution peratomtypepair 1 0.3
fix 		m4 all property/global coefficientFriction peratomtypepair 1 0.5

#New pair style
pair_style gran model hertz tangential history
pair_coeff	* *

timestep	0.00001

fix			gravi all gravity 9.81 vector 0.0 0.0 -1.0

fix xwalls1 all wall/gran model hertz tangential history primitive type 1 xplane 0.0
fix xwalls2 all wall/gran model hertz tangential history primitive type 1 xplane 0.85
fix ywalls1 all wall/gran model hertz tangential history primitive type 1 yplane 0.0
fix ywalls2 all wall/gran model hertz tangential history primitive type 1 yplane 0.85
fix zwalls1 all wall/gran model hertz tangential history primitive type 1 zplane  0.0
fix zwalls2 all wall/gran model hertz tangential history primitive type 1 zplane  0.86

#distributions for insertion
fix		pts1 all particletemplate/sphere 15485863 atom_type 1 density constant 2500 radius constant 0.003
fix		pdd1 all particledistribution/discrete 32452843 1 pts1 1

#particle insertion
group		nve_group region reg
0 atoms in group nve_group
fix		ins nve_group insert/pack seed 32452867 distributiontemplate pdd1 			maxattempt 200 insert_every once overlapcheck yes all_in yes vel constant 0. 0. 0. 			region reg particles_in_region 3000 region reg
#apply nve integration to all particles
fix			integr all nve/sphere

#output settings, include total thermal energy
compute		rke all erotate/sphere
compute peratom all pe/atom
compute pperatom all stress/atom
compute myTemp all temp
compute myPress all pressure myTemp
compute propat all property/atom xs ys zs vx vy vz vx fx fy fz
variable ffxx equal "fx"
variable ffyy equal "fy"
variable ffzz equal "fz"
compute p all reduce sum c_pperatom[1] c_pperatom[2] c_pperatom[3] c_pperatom[4] c_pperatom[5] c_pperatom[6]
variable p1 equal c_p[1]
variable p2 equal c_p[2]
variable p3 equal c_p[3]
variable p4 equal c_p[4]
variable p5 equal c_p[5]
variable p6 equal c_p[6]
compute cpgl all pair/gran/local pos vel force force_normal contactArea force_tangential

thermo			100
thermo_style	custom step lx ly lz c_myPress
thermo_modify	lost ignore norm no

#insert particles
run				5000
Setting up run at Wed Nov 14 20:54:38 2018

INFO: Particle insertion ins: inserting every 0 steps
Step             Lx             Ly             Lz        myPress
0           0.85           0.85           0.86              0
INFO: Particle insertion ins: inserted 3000 particle templates (mass 8.482300e-01) at step 1
 - a total of 3000 particle templates (mass 8.482300e-01) inserted so far.
Loop time of 0.534865 on 1 procs for 5000 steps with 3000 atoms, finish time Wed Nov 14 20:54:39 2018

Pair  time (%) = 0.0784846 (14.6737)
Neigh time (%) = 0.107222 (20.0466)
Comm  time (%) = 0.0445744 (8.33376)
Outpt time (%) = 0.00125022 (0.233745)
Other time (%) = 0.303334 (56.7122)

unfix			ins

#run
run				25000 upto
Setting up run at Wed Nov 14 20:54:39 2018

Step             Lx             Ly             Lz        myPress
5000           0.85           0.85           0.86      0.1079449
Averages over the last 101 of 201 rows, steps 15000 to 25000:
Lx Ly Lz myPress
0.85 0.85 0.86 1.34236
Loop time of 4.3231 on 1 procs for 20000 steps with 3000 atoms, finish time Wed Nov 14 20:54:43 2018

Pair  time (%) = 0.325038 (7.51862)
Neigh time (%) = 2.32454 (53.7702)
Comm  time (%) = 0.219853 (5.08553)
Outpt time (%) = 0.00611256 (0.141393)
Other time (%) = 1.44756 (33.4843)
