/*---------------------------------------------------------------------------*\
| =========                 |                                                 |
| \\      /  F ield         | OpenFOAM: The Open Source CFD Toolbox           |
|  \\    /   O peration     | Version:  5.x                                   |
|   \\  /    A nd           | Web:      www.OpenFOAM.org                      |
|    \\/     M anipulation  |                                                 |
\*---------------------------------------------------------------------------*/
Build  : 5.x-538044ac05c4
Exec   : interFoam
Date   : Jan 10 2019
Time   : 02:25:00
Host   : "tsimur"
PID    : 32650
I/O    : uncollated
Case   : /home/tsimur/OpenFOAM/OpenFOAM-5.x/tutorials/multiphase/interFoam/laminar/damBreak/damBreak
nProcs : 1
sigFpe : Enabling floating point exception trapping (FOAM_SIGFPE).
fileModificationChecking : Monitoring run-time modified files using timeStampMaster (fileModificationSkew 10)
allowSystemOperations : Allowing user-supplied system call operations

// * * * * * * * * * * * * * * * * * * * * * * * * * * * * * * * * * * * * * //
Create time

Create mesh for time = 0


PIMPLE: Operating solver in PISO mode

Reading field p_rgh

Reading field U

Reading/calculating face flux field phi

Reading transportProperties

Selecting incompressible transport model Newtonian
Selecting incompressible transport model Newtonian
Selecting turbulence model type laminar
Selecting laminar stress model Stokes

Reading g

Reading hRef
Calculating field g.h

No MRF models present

No finite volume options present

DICPCG:  Solving for pcorr, Initial residual = 0, Final residual = 0, No Iterations 0
time step continuity errors : sum local = 0, global = 0, cumulative = 0
Courant Number mean: 0 max: 0

Starting time loop

Courant Number mean: 0 max: 0
Interface Courant Number mean: 0 max: 0
deltaT = 0.00119048
Time = 0.00119048

PIMPLE: iteration 1
smoothSolver:  Solving for alpha.water, Initial residual = 0, Final residual = 0, No Iterations 0
Phase-1 volume fraction = 0.130194  Min(alpha.water) = 0  Max(alpha.water) = 1
MULES: Correcting alpha.water
MULES: Correcting alpha.water
Phase-1 volume fraction = 0.130194  Min(alpha.water) = 0  Max(alpha.water) = 1
DICPCG:  Solving for p_rgh, Initial residual = 1, Final residual = 0.00312169, No Iterations 1
time step continuity errors : sum local = 0.000863663, global = -1.26728e-12, cumulative = -1.26728e-12
DICPCG:  Solving for p_rgh, Initial residual = 0.00146342, Final residual = 6.18289e-05, No Iterations 13
time step continuity errors : sum local = 3.6494e-05, global = -1.00159e-05, cumulative = -1.00159e-05
DICPCG:  Solving for p_rgh, Initial residual = 5.08541e-05, Final residual = 8.19126e-08, No Iterations 48
time step continuity errors : sum local = 5.88485e-08, global = 1.01685e-08, cumulative = -1.00057e-05
ExecutionTime = 0.05 s  ClockTime = 1 s

Courant Number mean: 0.00124881 max: 0.107249
Interface Courant Number mean: 0 max: 0
deltaT = 0.00139456
Time = 0.00258503

PIMPLE: iteration 1
smoothSolver:  Solving for alpha.water, Initial residual = 0.000282089, Final residual = 1.76373e-12, No Iterations 2
Phase-1 volume fraction = 0.130194  Min(alpha.water) = 0  Max(alpha.water) = 1
MULES: Correcting alpha.water
MULES: Correcting alpha.water
Phase-1 volume fraction = 0.130194  Min(alpha.water) = -3.70544e-13  Max(alpha.water) = 1
DICPCG:  Solving for p_rgh, Initial residual = 0.00309606, Final residual = 0.00010218, No Iterations 2
time step continuity errors : sum local = 8.64267e-05, global = 2.84025e-08, cumulative = -9.97728e-06
DICPCG:  Solving for p_rgh, Initial residual = 0.000211925, Final residual = 9.22202e-06, No Iterations 35
time step continuity errors : sum local = 7.80404e-06, global = -8.60922e-08, cumulative = -1.00634e-05
DICPCG:  Solving for p_rgh, Initial residual = 2.94093e-05, Final residual = 9.59862e-08, No Iterations 43
time step continuity errors : sum local = 8.1199e-08, global = 5.63664e-09, cumulative = -1.00577e-05
ExecutionTime = 0.06 s  ClockTime = 1 s

Courant Number mean: 0.00181513 max: 0.0549796
Interface Courant Number mean: 4.99693e-05 max: 0.0549796
deltaT = 0.001635
Time = 0.00422003

PIMPLE: iteration 1
smoothSolver:  Solving for alpha.water, Initial residual = 0.000190546, Final residual = 8.83224e-09, No Iterations 1
Phase-1 volume fraction = 0.130194  Min(alpha.water) = 0  Max(alpha.water) = 1
MULES: Correcting alpha.water
MULES: Correcting alpha.water
Phase-1 volume fraction = 0.130194  Min(alpha.water) = -7.48823e-12  Max(alpha.water) = 1
DICPCG:  Solving for p_rgh, Initial residual = 0.00263542, Final residual = 6.09914e-05, No Iterations 2
time step continuity errors : sum local = 6.43291e-05, global = 9.49631e-11, cumulative = -1.00576e-05
DICPCG:  Solving for p_rgh, Initial residual = 6.18513e-05, Final residual = 2.43691e-06, No Iterations 36
time step continuity errors : sum local = 2.56861e-06, global = 3.17477e-09, cumulative = -1.00545e-05
DICPCG:  Solving for p_rgh, Initial residual = 2.89223e-06, Final residual = 7.05976e-08, No Iterations 19
time step continuity errors : sum local = 7.44606e-08, global = -5.49025e-09, cumulative = -1.006e-05
ExecutionTime = 0.07 s  ClockTime = 1 s

Courant Number mean: 0.00313725 max: 0.051469
Interface Courant Number mean: 4.24566e-05 max: 0.0434254
deltaT = 0.0019075
Time = 0.00612753

PIMPLE: iteration 1
smoothSolver:  Solving for alpha.water, Initial residual = 0.000225843, Final residual = 6.9388e-14, No Iterations 2
Phase-1 volume fraction = 0.130194  Min(alpha.water) = 0  Max(alpha.water) = 1
MULES: Correcting alpha.water
MULES: Correcting alpha.water
Phase-1 volume fraction = 0.130194  Min(alpha.water) = -2.57447e-10  Max(alpha.water) = 1
DICPCG:  Solving for p_rgh, Initial residual = 0.00332348, Final residual = 0.000146653, No Iterations 1
time step continuity errors : sum local = 0.000193494, global = -1.6569e-08, cumulative = -1.00765e-05
DICPCG:  Solving for p_rgh, Initial residual = 0.000149537, Final residual = 6.72877e-06, No Iterations 10
time step continuity errors : sum local = 8.8629e-06, global = -3.68743e-07, cumulative = -1.04453e-05
DICPCG:  Solving for p_rgh, Initial residual = 7.1417e-06, Final residual = 8.8668e-08, No Iterations 37
time step continuity errors : sum local = 1.16823e-07, global = -1.05771e-08, cumulative = -1.04558e-05
ExecutionTime = 0.08 s  ClockTime = 1 s

Courant Number mean: 0.00514118 max: 0.059876
Interface Courant Number mean: 0.000132045 max: 0.0475116
deltaT = 0.00219362
Time = 0.00832115

PIMPLE: iteration 1
smoothSolver:  Solving for alpha.water, Initial residual = 0.000321729, Final residual = 4.25075e-13, No Iterations 2
Phase-1 volume fraction = 0.130194  Min(alpha.water) = 0  Max(alpha.water) = 1
MULES: Correcting alpha.water
MULES: Correcting alpha.water
Phase-1 volume fraction = 0.130194  Min(alpha.water) = -3.26503e-09  Max(alpha.water) = 1
DICPCG:  Solving for p_rgh, Initial residual = 0.00488474, Final residual = 0.000156256, No Iterations 1
time step continuity errors : sum local = 0.00025617, global = -7.42277e-09, cumulative = -1.04633e-05
DICPCG:  Solving for p_rgh, Initial residual = 0.000158919, Final residual = 7.44691e-06, No Iterations 9
time step continuity errors : sum local = 1.21714e-05, global = -5.73601e-08, cumulative = -1.05206e-05
DICPCG:  Solving for p_rgh, Initial residual = 8.10472e-06, Final residual = 9.04668e-08, No Iterations 37
time step continuity errors : sum local = 1.47911e-07, global = 1.6819e-09, cumulative = -1.0519e-05
ExecutionTime = 0.09 s  ClockTime = 1 s

Courant Number mean: 0.00792298 max: 0.0732043
Interface Courant Number mean: 0.000283218 max: 0.0658398
deltaT = 0.00260493
Time = 0.0109261

PIMPLE: iteration 1
smoothSolver:  Solving for alpha.water, Initial residual = 0.000479657, Final residual = 2.41186e-12, No Iterations 2
Phase-1 volume fraction = 0.130194  Min(alpha.water) = 0  Max(alpha.water) = 1
MULES: Correcting alpha.water
MULES: Correcting alpha.water
Phase-1 volume fraction = 0.130194  Min(alpha.water) = -2.51182e-08  Max(alpha.water) = 1
DICPCG:  Solving for p_rgh, Initial residual = 0.00740517, Final residual = 0.000178183, No Iterations 1
time step continuity errors : sum local = 0.000392327, global = 3.94909e-08, cumulative = -1.04795e-05
DICPCG:  Solving for p_rgh, Initial residual = 0.000180614, Final residual = 8.49079e-06, No Iterations 9
time step continuity errors : sum local = 1.86013e-05, global = 9.67632e-08, cumulative = -1.03827e-05
DICPCG:  Solving for p_rgh, Initial residual = 1.0097e-05, Final residual = 9.32226e-08, No Iterations 37
time step continuity errors : sum local = 2.04323e-07, global = 4.99437e-09, cumulative = -1.03777e-05
ExecutionTime = 0.1 s  ClockTime = 1 s

Courant Number mean: 0.0122483 max: 0.101832
Interface Courant Number mean: 0.000491056 max: 0.0991923
deltaT = 0.00300569
Time = 0.0139318

PIMPLE: iteration 1
smoothSolver:  Solving for alpha.water, Initial residual = 0.000691589, Final residual = 1.10398e-11, No Iterations 2
Phase-1 volume fraction = 0.130194  Min(alpha.water) = 0  Max(alpha.water) = 1
MULES: Correcting alpha.water
MULES: Correcting alpha.water
Phase-1 volume fraction = 0.130194  Min(alpha.water) = -1.2993e-07  Max(alpha.water) = 1
DICPCG:  Solving for p_rgh, Initial residual = 0.0108256, Final residual = 0.000200498, No Iterations 1
time step continuity errors : sum local = 0.000564148, global = 4.51881e-08, cumulative = -1.03325e-05
DICPCG:  Solving for p_rgh, Initial residual = 0.00020334, Final residual = 9.63721e-06, No Iterations 10
time step continuity errors : sum local = 2.69244e-05, global = 2.81915e-07, cumulative = -1.00506e-05
DICPCG:  Solving for p_rgh, Initial residual = 1.28455e-05, Final residual = 9.25692e-08, No Iterations 36
time step continuity errors : sum local = 2.58838e-07, global = -1.04057e-09, cumulative = -1.00516e-05
ExecutionTime = 0.1 s  ClockTime = 1 s

Courant Number mean: 0.0179224 max: 0.148607
Interface Courant Number mean: 0.000788783 max: 0.143571
deltaT = 0.00360682
Time = 0.0175386

PIMPLE: iteration 1
smoothSolver:  Solving for alpha.water, Initial residual = 0.00102033, Final residual = 5.43966e-11, No Iterations 2
Phase-1 volume fraction = 0.130194  Min(alpha.water) = 0  Max(alpha.water) = 1
MULES: Correcting alpha.water
MULES: Correcting alpha.water
Phase-1 volume fraction = 0.130194  Min(alpha.water) = -7.40098e-07  Max(alpha.water) = 1
DICPCG:  Solving for p_rgh, Initial residual = 0.0161368, Final residual = 0.000238926, No Iterations 1
time step continuity errors : sum local = 0.000927339, global = 6.50088e-08, cumulative = -9.98663e-06
DICPCG:  Solving for p_rgh, Initial residual = 0.00024403, Final residual = 1.14941e-05, No Iterations 10
time step continuity errors : sum local = 4.41421e-05, global = 1.11893e-06, cumulative = -8.8677e-06
DICPCG:  Solving for p_rgh, Initial residual = 1.79081e-05, Final residual = 9.85118e-08, No Iterations 38
time step continuity errors : sum local = 3.78774e-07, global = -6.83495e-08, cumulative = -8.93605e-06
ExecutionTime = 0.11 s  ClockTime = 1 s

Courant Number mean: 0.0270109 max: 0.21585
Interface Courant Number mean: 0.00132885 max: 0.209359
deltaT = 0.00405768
Time = 0.0215963

PIMPLE: iteration 1
smoothSolver:  Solving for alpha.water, Initial residual = 0.00140091, Final residual = 1.80118e-10, No Iterations 2
Phase-1 volume fraction = 0.130194  Min(alpha.water) = 0  Max(alpha.water) = 1
MULES: Correcting alpha.water
MULES: Correcting alpha.water
Phase-1 volume fraction = 0.130194  Min(alpha.water) = -2.90873e-07  Max(alpha.water) = 1
DICPCG:  Solving for p_rgh, Initial residual = 0.0223732, Final residual = 0.000265463, No Iterations 1
time step continuity errors : sum local = 0.0012458, global = -1.76135e-08, cumulative = -8.95367e-06
DICPCG:  Solving for p_rgh, Initial residual = 0.000273084, Final residual = 1.31662e-05, No Iterations 10
time step continuity errors : sum local = 6.08748e-05, global = 2.38561e-06, cumulative = -6.56806e-06
DICPCG:  Solving for p_rgh, Initial residual = 2.30685e-05, Final residual = 9.72126e-08, No Iterations 40
time step continuity errors : sum local = 4.50303e-07, global = -7.4079e-08, cumulative = -6.64214e-06
ExecutionTime = 0.12 s  ClockTime = 1 s

Courant Number mean: 0.0373899 max: 0.279343
Interface Courant Number mean: 0.00182778 max: 0.275236
deltaT = 0.00473396
Time = 0.0263302

PIMPLE: iteration 1
smoothSolver:  Solving for alpha.water, Initial residual = 0.0019667, Final residual = 5.87571e-10, No Iterations 2
Phase-1 volume fraction = 0.130194  Min(alpha.water) = 0  Max(alpha.water) = 1
MULES: Correcting alpha.water
MULES: Correcting alpha.water
Phase-1 volume fraction = 0.130194  Min(alpha.water) = -1.63684e-06  Max(alpha.water) = 1
DICPCG:  Solving for p_rgh, Initial residual = 0.0310718, Final residual = 0.000253138, No Iterations 1
time step continuity errors : sum local = 0.00153231, global = 1.78682e-07, cumulative = -6.46346e-06
DICPCG:  Solving for p_rgh, Initial residual = 0.000267953, Final residual = 1.30068e-05, No Iterations 11
time step continuity errors : sum local = 7.70319e-05, global = 1.25772e-06, cumulative = -5.20574e-06
DICPCG:  Solving for p_rgh, Initial residual = 3.03546e-05, Final residual = 9.55999e-08, No Iterations 43
time step continuity errors : sum local = 5.67926e-07, global = -3.02612e-08, cumulative = -5.236e-06
ExecutionTime = 0.13 s  ClockTime = 1 s

Courant Number mean: 0.0534156 max: 0.413884
Interface Courant Number mean: 0.00271316 max: 0.375868
deltaT = 0.00473396
Time = 0.0310642

PIMPLE: iteration 1
smoothSolver:  Solving for alpha.water, Initial residual = 0.00237827, Final residual = 1.53931e-13, No Iterations 3
Phase-1 volume fraction = 0.130194  Min(alpha.water) = 0  Max(alpha.water) = 1
MULES: Correcting alpha.water
MULES: Correcting alpha.water
Phase-1 volume fraction = 0.130194  Min(alpha.water) = -2.13935e-06  Max(alpha.water) = 1
DICPCG:  Solving for p_rgh, Initial residual = 0.0381116, Final residual = 0.000262321, No Iterations 1
time step continuity errors : sum local = 0.00149498, global = 3.2704e-07, cumulative = -4.90896e-06
DICPCG:  Solving for p_rgh, Initial residual = 0.000281395, Final residual = 1.35944e-05, No Iterations 11
time step continuity errors : sum local = 7.54154e-05, global = 5.53599e-06, cumulative = 6.27029e-07
DICPCG:  Solving for p_rgh, Initial residual = 3.37085e-05, Final residual = 7.95206e-08, No Iterations 39
time step continuity errors : sum local = 4.43133e-07, global = -3.7582e-08, cumulative = 5.89447e-07
ExecutionTime = 0.14 s  ClockTime = 1 s

Courant Number mean: 0.0628706 max: 0.471842
Interface Courant Number mean: 0.00329479 max: 0.435583
deltaT = 0.00473396
Time = 0.0357981

PIMPLE: iteration 1
smoothSolver:  Solving for alpha.water, Initial residual = 0.00275575, Final residual = 3.3113e-13, No Iterations 3
Phase-1 volume fraction = 0.130194  Min(alpha.water) = 0  Max(alpha.water) = 1
MULES: Correcting alpha.water
MULES: Correcting alpha.water
Phase-1 volume fraction = 0.130194  Min(alpha.water) = -3.79509e-06  Max(alpha.water) = 1
DICPCG:  Solving for p_rgh, Initial residual = 0.0454064, Final residual = 0.000308903, No Iterations 1
time step continuity errors : sum local = 0.00164299, global = 2.15163e-07, cumulative = 8.04611e-07
DICPCG:  Solving for p_rgh, Initial residual = 0.000338094, Final residual = 1.64802e-05, No Iterations 10
time step continuity errors : sum local = 8.47511e-05, global = 6.50015e-06, cumulative = 7.30476e-06
DICPCG:  Solving for p_rgh, Initial residual = 4.12782e-05, Final residual = 9.93443e-08, No Iterations 39
time step continuity errors : sum local = 5.13631e-07, global = -4.27719e-08, cumulative = 7.26199e-06
ExecutionTime = 0.14 s  ClockTime = 1 s

Courant Number mean: 0.0719395 max: 0.538652
Interface Courant Number mean: 0.00389952 max: 0.513112
deltaT = 0.00473396
Time = 0.0405321

PIMPLE: iteration 1
smoothSolver:  Solving for alpha.water, Initial residual = 0.00311017, Final residual = 1.3526e-10, No Iterations 3
Phase-1 volume fraction = 0.130194  Min(alpha.water) = 0  Max(alpha.water) = 1
MULES: Correcting alpha.water
MULES: Correcting alpha.water
Phase-1 volume fraction = 0.130194  Min(alpha.water) = -1.42605e-06  Max(alpha.water) = 1
DICPCG:  Solving for p_rgh, Initial residual = 0.0515922, Final residual = 0.000363394, No Iterations 1
time step continuity errors : sum local = 0.0017823, global = 1.67203e-07, cumulative = 7.42919e-06
DICPCG:  Solving for p_rgh, Initial residual = 0.000406783, Final residual = 1.88829e-05, No Iterations 10
time step continuity errors : sum local = 8.90242e-05, global = 8.19291e-06, cumulative = 1.56221e-05
DICPCG:  Solving for p_rgh, Initial residual = 5.18137e-05, Final residual = 9.74609e-08, No Iterations 30
time step continuity errors : sum local = 4.6284e-07, global = -1.86374e-07, cumulative = 1.54357e-05
ExecutionTime = 0.15 s  ClockTime = 1 s

Courant Number mean: 0.080903 max: 0.603636
Interface Courant Number mean: 0.00497983 max: 0.549971
deltaT = 0.00473396
Time = 0.045266

PIMPLE: iteration 1
smoothSolver:  Solving for alpha.water, Initial residual = 0.00345506, Final residual = 3.03782e-09, No Iterations 3
Phase-1 volume fraction = 0.130194  Min(alpha.water) = 0  Max(alpha.water) = 1
MULES: Correcting alpha.water
MULES: Correcting alpha.water
Phase-1 volume fraction = 0.130194  Min(alpha.water) = -6.25497e-06  Max(alpha.water) = 1
DICPCG:  Solving for p_rgh, Initial residual = 0.055653, Final residual = 0.00045164, No Iterations 1
time step continuity errors : sum local = 0.00202533, global = -1.44967e-07, cumulative = 1.52908e-05
DICPCG:  Solving for p_rgh, Initial residual = 0.000504751, Final residual = 2.22067e-05, No Iterations 10
time step continuity errors : sum local = 9.54256e-05, global = 1.1158e-05, cumulative = 2.64488e-05
DICPCG:  Solving for p_rgh, Initial residual = 6.60331e-05, Final residual = 9.53126e-08, No Iterations 30
time step continuity errors : sum local = 4.13553e-07, global = -9.54596e-08, cumulative = 2.63533e-05
ExecutionTime = 0.15 s  ClockTime = 1 s

Courant Number mean: 0.0897493 max: 0.632275
Interface Courant Number mean: 0.00635274 max: 0.595053
deltaT = 0.00473396
Time = 0.05

PIMPLE: iteration 1
smoothSolver:  Solving for alpha.water, Initial residual = 0.00378475, Final residual = 5.6279e-09, No Iterations 3
Phase-1 volume fraction = 0.130194  Min(alpha.water) = 0  Max(alpha.water) = 1
MULES: Correcting alpha.water
MULES: Correcting alpha.water
Phase-1 volume fraction = 0.130194  Min(alpha.water) = -2.84475e-06  Max(alpha.water) = 1
DICPCG:  Solving for p_rgh, Initial residual = 0.0566692, Final residual = 0.000551615, No Iterations 1
time step continuity errors : sum local = 0.00225531, global = 1.22369e-07, cumulative = 2.64757e-05
DICPCG:  Solving for p_rgh, Initial residual = 0.000614521, Final residual = 2.6309e-05, No Iterations 10
time step continuity errors : sum local = 0.00010297, global = 1.60696e-05, cumulative = 4.25453e-05
DICPCG:  Solving for p_rgh, Initial residual = 8.26419e-05, Final residual = 8.4755e-08, No Iterations 32
time step continuity errors : sum local = 3.3575e-07, global = -1.13395e-07, cumulative = 4.24319e-05
ExecutionTime = 0.18 s  ClockTime = 1 s

Courant Number mean: 0.0984634 max: 0.689913
Interface Courant Number mean: 0.00742398 max: 0.637619
deltaT = 0.005
Time = 0.055

PIMPLE: iteration 1
smoothSolver:  Solving for alpha.water, Initial residual = 0.0043572, Final residual = 9.17981e-11, No Iterations 4
Phase-1 volume fraction = 0.130194  Min(alpha.water) = 0  Max(alpha.water) = 1
MULES: Correcting alpha.water
MULES: Correcting alpha.water
Phase-1 volume fraction = 0.130194  Min(alpha.water) = -1.4323e-05  Max(alpha.water) = 1
DICPCG:  Solving for p_rgh, Initial residual = 0.056067, Final residual = 0.000759934, No Iterations 1
time step continuity errors : sum local = 0.00313526, global = -3.95504e-08, cumulative = 4.23923e-05
DICPCG:  Solving for p_rgh, Initial residual = 0.000851803, Final residual = 3.96533e-05, No Iterations 10
time step continuity errors : sum local = 0.000156675, global = 2.49998e-05, cumulative = 6.73921e-05
DICPCG:  Solving for p_rgh, Initial residual = 0.000121286, Final residual = 6.90968e-08, No Iterations 50
time step continuity errors : sum local = 2.77218e-07, global = -4.89129e-09, cumulative = 6.73872e-05
ExecutionTime = 0.19 s  ClockTime = 1 s

Courant Number mean: 0.113951 max: 0.764171
Interface Courant Number mean: 0.00866252 max: 0.734814
deltaT = 0.005625
Time = 0.060625

PIMPLE: iteration 1
smoothSolver:  Solving for alpha.water, Initial residual = 0.00536796, Final residual = 3.27681e-10, No Iterations 4
Phase-1 volume fraction = 0.130194  Min(alpha.water) = 0  Max(alpha.water) = 1
MULES: Correcting alpha.water
MULES: Correcting alpha.water
Phase-1 volume fraction = 0.130194  Min(alpha.water) = -1.56123e-05  Max(alpha.water) = 1
DICPCG:  Solving for p_rgh, Initial residual = 0.0544334, Final residual = 0.00118947, No Iterations 1
time step continuity errors : sum local = 0.00560994, global = 2.9964e-07, cumulative = 6.76868e-05
DICPCG:  Solving for p_rgh, Initial residual = 0.0013462, Final residual = 5.63256e-05, No Iterations 11
time step continuity errors : sum local = 0.000254577, global = 5.15439e-05, cumulative = 0.000119231
DICPCG:  Solving for p_rgh, Initial residual = 0.000191888, Final residual = 9.89486e-08, No Iterations 47
time step continuity errors : sum local = 4.56528e-07, global = -2.09587e-08, cumulative = 0.00011921
ExecutionTime = 0.2 s  ClockTime = 1 s

Courant Number mean: 0.140731 max: 0.915702
Interface Courant Number mean: 0.0113371 max: 0.839619
deltaT = 0.005625
Time = 0.06625

PIMPLE: iteration 1
smoothSolver:  Solving for alpha.water, Initial residual = 0.0058408, Final residual = 1.87355e-09, No Iterations 4
Phase-1 volume fraction = 0.130194  Min(alpha.water) = -7.07472e-29  Max(alpha.water) = 1
MULES: Correcting alpha.water
MULES: Correcting alpha.water
Phase-1 volume fraction = 0.130194  Min(alpha.water) = -4.23769e-05  Max(alpha.water) = 1
DICPCG:  Solving for p_rgh, Initial residual = 0.0435659, Final residual = 0.00143495, No Iterations 1
time step continuity errors : sum local = 0.00639041, global = -3.95655e-07, cumulative = 0.000118814
DICPCG:  Solving for p_rgh, Initial residual = 0.00161114, Final residual = 7.35291e-05, No Iterations 10
time step continuity errors : sum local = 0.000317817, global = 6.59004e-05, cumulative = 0.000184714
DICPCG:  Solving for p_rgh, Initial residual = 0.000234633, Final residual = 9.03252e-08, No Iterations 50
time step continuity errors : sum local = 3.99568e-07, global = -3.57426e-08, cumulative = 0.000184679
ExecutionTime = 0.2 s  ClockTime = 1 s

Courant Number mean: 0.15276 max: 0.962006
Interface Courant Number mean: 0.0131221 max: 0.923151
deltaT = 0.005625
Time = 0.071875

PIMPLE: iteration 1
smoothSolver:  Solving for alpha.water, Initial residual = 0.00625584, Final residual = 3.54459e-09, No Iterations 4
Phase-1 volume fraction = 0.130194  Min(alpha.water) = 0  Max(alpha.water) = 1
MULES: Correcting alpha.water
MULES: Correcting alpha.water
Phase-1 volume fraction = 0.130194  Min(alpha.water) = -5.2328e-05  Max(alpha.water) = 1
DICPCG:  Solving for p_rgh, Initial residual = 0.0399352, Final residual = 0.0011734, No Iterations 1
time step continuity errors : sum local = 0.0055226, global = -9.76712e-07, cumulative = 0.000183702
DICPCG:  Solving for p_rgh, Initial residual = 0.00134456, Final residual = 6.17005e-05, No Iterations 11
time step continuity errors : sum local = 0.000282505, global = 6.20445e-05, cumulative = 0.000245747
DICPCG:  Solving for p_rgh, Initial residual = 0.000205869, Final residual = 9.11611e-08, No Iterations 50
time step continuity errors : sum local = 4.27392e-07, global = -4.13069e-08, cumulative = 0.000245705
ExecutionTime = 0.21 s  ClockTime = 1 s

Courant Number mean: 0.164346 max: 1.18183
Interface Courant Number mean: 0.0149056 max: 0.989869
deltaT = 0.0046875
Time = 0.0765625

PIMPLE: iteration 1
smoothSolver:  Solving for alpha.water, Initial residual = 0.00557614, Final residual = 1.89283e-09, No Iterations 4
Phase-1 volume fraction = 0.130194  Min(alpha.water) = -2.73491e-14  Max(alpha.water) = 1
MULES: Correcting alpha.water
MULES: Correcting alpha.water
Phase-1 volume fraction = 0.130194  Min(alpha.water) = -1.21674e-05  Max(alpha.water) = 1
DICPCG:  Solving for p_rgh, Initial residual = 0.066335, Final residual = 0.000738431, No Iterations 1
time step continuity errors : sum local = 0.00290293, global = -8.09149e-07, cumulative = 0.000244896
DICPCG:  Solving for p_rgh, Initial residual = 0.000857923, Final residual = 3.75424e-05, No Iterations 11
time step continuity errors : sum local = 0.000138634, global = 2.70846e-05, cumulative = 0.000271981
DICPCG:  Solving for p_rgh, Initial residual = 0.000130887, Final residual = 9.22383e-08, No Iterations 49
time step continuity errors : sum local = 3.47353e-07, global = -1.29624e-08, cumulative = 0.000271968
ExecutionTime = 0.22 s  ClockTime = 1 s

Courant Number mean: 0.144664 max: 1.16454
Interface Courant Number mean: 0.0133251 max: 0.829455
deltaT = 0.00390625
Time = 0.0804688

PIMPLE: iteration 1
smoothSolver:  Solving for alpha.water, Initial residual = 0.00492171, Final residual = 6.69159e-10, No Iterations 4
Phase-1 volume fraction = 0.130194  Min(alpha.water) = -1.08404e-14  Max(alpha.water) = 1
MULES: Correcting alpha.water
MULES: Correcting alpha.water
Phase-1 volume fraction = 0.130194  Min(alpha.water) = -3.25592e-05  Max(alpha.water) = 1
DICPCG:  Solving for p_rgh, Initial residual = 0.0496968, Final residual = 0.000903846, No Iterations 1
time step continuity errors : sum local = 0.00227643, global = -3.07695e-07, cumulative = 0.00027166
DICPCG:  Solving for p_rgh, Initial residual = 0.00102105, Final residual = 4.29798e-05, No Iterations 11
time step continuity errors : sum local = 0.00010347, global = 2.01687e-05, cumulative = 0.000291829
DICPCG:  Solving for p_rgh, Initial residual = 0.000133722, Final residual = 9.37217e-08, No Iterations 34
time step continuity errors : sum local = 2.29791e-07, global = -1.15218e-08, cumulative = 0.000291817
ExecutionTime = 0.23 s  ClockTime = 1 s

Courant Number mean: 0.125846 max: 1.12364
Interface Courant Number mean: 0.0113307 max: 0.753388
deltaT = 0.00325521
Time = 0.083724

PIMPLE: iteration 1
smoothSolver:  Solving for alpha.water, Initial residual = 0.00430059, Final residual = 2.26627e-10, No Iterations 4
Phase-1 volume fraction = 0.130194  Min(alpha.water) = -8.418e-15  Max(alpha.water) = 1
MULES: Correcting alpha.water
MULES: Correcting alpha.water
Phase-1 volume fraction = 0.130194  Min(alpha.water) = -1.05785e-05  Max(alpha.water) = 1
DICPCG:  Solving for p_rgh, Initial residual = 0.0385035, Final residual = 0.00103515, No Iterations 1
time step continuity errors : sum local = 0.00174119, global = -2.28222e-07, cumulative = 0.000291589
DICPCG:  Solving for p_rgh, Initial residual = 0.00115312, Final residual = 5.135e-05, No Iterations 11
time step continuity errors : sum local = 8.36361e-05, global = 1.51413e-05, cumulative = 0.00030673
DICPCG:  Solving for p_rgh, Initial residual = 0.000138457, Final residual = 8.13149e-08, No Iterations 49
time step continuity errors : sum local = 1.34574e-07, global = -7.34773e-09, cumulative = 0.000306723
ExecutionTime = 0.23 s  ClockTime = 1 s

Courant Number mean: 0.108684 max: 1.08004
Interface Courant Number mean: 0.00969025 max: 0.63476
deltaT = 0.00271267
Time = 0.0864366

PIMPLE: iteration 1
smoothSolver:  Solving for alpha.water, Initial residual = 0.00371479, Final residual = 7.22218e-09, No Iterations 3
Phase-1 volume fraction = 0.130194  Min(alpha.water) = -6.78376e-15  Max(alpha.water) = 1
MULES: Correcting alpha.water
MULES: Correcting alpha.water
Phase-1 volume fraction = 0.130194  Min(alpha.water) = -1.82714e-06  Max(alpha.water) = 1
DICPCG:  Solving for p_rgh, Initial residual = 0.0295361, Final residual = 0.000868406, No Iterations 1
time step continuity errors : sum local = 0.00101979, global = -1.41676e-07, cumulative = 0.000306581
DICPCG:  Solving for p_rgh, Initial residual = 0.000960791, Final residual = 4.26986e-05, No Iterations 11
time step continuity errors : sum local = 4.89741e-05, global = 9.78411e-06, cumulative = 0.000316365
DICPCG:  Solving for p_rgh, Initial residual = 0.000105078, Final residual = 8.97418e-08, No Iterations 48
time step continuity errors : sum local = 1.04266e-07, global = -5.57513e-09, cumulative = 0.00031636
ExecutionTime = 0.24 s  ClockTime = 1 s

Courant Number mean: 0.0930127 max: 1.01639
Interface Courant Number mean: 0.00811602 max: 0.635196
deltaT = 0.00226056
Time = 0.0886972

PIMPLE: iteration 1
smoothSolver:  Solving for alpha.water, Initial residual = 0.00316644, Final residual = 2.57572e-09, No Iterations 3
Phase-1 volume fraction = 0.130194  Min(alpha.water) = -1.76328e-13  Max(alpha.water) = 1
MULES: Correcting alpha.water
MULES: Correcting alpha.water
Phase-1 volume fraction = 0.130194  Min(alpha.water) = -3.12147e-08  Max(alpha.water) = 1
DICPCG:  Solving for p_rgh, Initial residual = 0.0262392, Final residual = 0.000784416, No Iterations 1
time step continuity errors : sum local = 0.000665124, global = -1.01898e-07, cumulative = 0.000316258
DICPCG:  Solving for p_rgh, Initial residual = 0.000860145, Final residual = 4.18531e-05, No Iterations 11
time step continuity errors : sum local = 3.47951e-05, global = 5.76847e-06, cumulative = 0.000322026
DICPCG:  Solving for p_rgh, Initial residual = 8.98999e-05, Final residual = 8.33675e-08, No Iterations 47
time step continuity errors : sum local = 7.00327e-08, global = -2.12073e-09, cumulative = 0.000322024
ExecutionTime = 0.25 s  ClockTime = 1 s

Courant Number mean: 0.0791121 max: 0.923006
Interface Courant Number mean: 0.00639147 max: 0.538068
deltaT = 0.00226056
Time = 0.0909578

PIMPLE: iteration 1
smoothSolver:  Solving for alpha.water, Initial residual = 0.00325193, Final residual = 2.50536e-09, No Iterations 3
Phase-1 volume fraction = 0.130194  Min(alpha.water) = -5.55482e-15  Max(alpha.water) = 1
MULES: Correcting alpha.water
MULES: Correcting alpha.water
Phase-1 volume fraction = 0.130194  Min(alpha.water) = -7.65455e-08  Max(alpha.water) = 1
DICPCG:  Solving for p_rgh, Initial residual = 0.0296091, Final residual = 0.000660565, No Iterations 1
time step continuity errors : sum local = 0.000599967, global = -5.5672e-08, cumulative = 0.000321969
DICPCG:  Solving for p_rgh, Initial residual = 0.000729998, Final residual = 3.38559e-05, No Iterations 12
time step continuity errors : sum local = 3.00391e-05, global = 4.46458e-06, cumulative = 0.000326433
DICPCG:  Solving for p_rgh, Initial residual = 7.85728e-05, Final residual = 9.49281e-08, No Iterations 33
time step continuity errors : sum local = 8.49751e-08, global = -3.29036e-08, cumulative = 0.0003264
ExecutionTime = 0.26 s  ClockTime = 1 s

Courant Number mean: 0.0807331 max: 0.992687
Interface Courant Number mean: 0.00659182 max: 0.545027
deltaT = 0.00226056
Time = 0.0932183

PIMPLE: iteration 1
smoothSolver:  Solving for alpha.water, Initial residual = 0.00334772, Final residual = 2.63085e-09, No Iterations 3
Phase-1 volume fraction = 0.130194  Min(alpha.water) = -8.32045e-14  Max(alpha.water) = 1
MULES: Correcting alpha.water
MULES: Correcting alpha.water
Phase-1 volume fraction = 0.130194  Min(alpha.water) = -1.1226e-05  Max(alpha.water) = 1
DICPCG:  Solving for p_rgh, Initial residual = 0.0395318, Final residual = 0.00048723, No Iterations 1
time step continuity errors : sum local = 0.000498526, global = -9.13132e-08, cumulative = 0.000326309
DICPCG:  Solving for p_rgh, Initial residual = 0.000552657, Final residual = 2.27153e-05, No Iterations 13
time step continuity errors : sum local = 2.24075e-05, global = 1.83329e-06, cumulative = 0.000328142
DICPCG:  Solving for p_rgh, Initial residual = 6.72583e-05, Final residual = 9.39908e-08, No Iterations 48
time step continuity errors : sum local = 9.35101e-08, global = -5.87164e-09, cumulative = 0.000328136
ExecutionTime = 0.27 s  ClockTime = 1 s

Courant Number mean: 0.082418 max: 1.05285
Interface Courant Number mean: 0.00716226 max: 0.552997
deltaT = 0.00169542
Time = 0.0949137

PIMPLE: iteration 1
smoothSolver:  Solving for alpha.water, Initial residual = 0.00257986, Final residual = 5.68814e-10, No Iterations 3
Phase-1 volume fraction = 0.130194  Min(alpha.water) = -7.42255e-14  Max(alpha.water) = 1
MULES: Correcting alpha.water
MULES: Correcting alpha.water
Phase-1 volume fraction = 0.130194  Min(alpha.water) = -1.11963e-09  Max(alpha.water) = 1
DICPCG:  Solving for p_rgh, Initial residual = 0.0288044, Final residual = 0.000484204, No Iterations 1
time step continuity errors : sum local = 0.000268792, global = 1.39045e-09, cumulative = 0.000328138
DICPCG:  Solving for p_rgh, Initial residual = 0.000531443, Final residual = 2.18546e-05, No Iterations 13
time step continuity errors : sum local = 1.18278e-05, global = 9.75915e-07, cumulative = 0.000329114
DICPCG:  Solving for p_rgh, Initial residual = 5.56177e-05, Final residual = 9.00867e-08, No Iterations 47
time step continuity errors : sum local = 4.9131e-08, global = -3.15585e-09, cumulative = 0.000329111
ExecutionTime = 0.28 s  ClockTime = 1 s

Courant Number mean: 0.0627606 max: 0.826358
Interface Courant Number mean: 0.00553911 max: 0.696017
deltaT = 0.00169542
Time = 0.0966092

PIMPLE: iteration 1
smoothSolver:  Solving for alpha.water, Initial residual = 0.00263061, Final residual = 5.79824e-10, No Iterations 3
Phase-1 volume fraction = 0.130194  Min(alpha.water) = -6.5802e-14  Max(alpha.water) = 1
MULES: Correcting alpha.water
MULES: Correcting alpha.water
Phase-1 volume fraction = 0.130194  Min(alpha.water) = -1.46826e-07  Max(alpha.water) = 1
DICPCG:  Solving for p_rgh, Initial residual = 0.0285258, Final residual = 0.000587081, No Iterations 1
time step continuity errors : sum local = 0.000314543, global = -1.81108e-09, cumulative = 0.000329109
DICPCG:  Solving for p_rgh, Initial residual = 0.000642706, Final residual = 2.79037e-05, No Iterations 12
time step continuity errors : sum local = 1.45777e-05, global = 1.89008e-06, cumulative = 0.000330999
DICPCG:  Solving for p_rgh, Initial residual = 6.35594e-05, Final residual = 9.81127e-08, No Iterations 45
time step continuity errors : sum local = 5.15887e-08, global = -5.22978e-09, cumulative = 0.000330994
ExecutionTime = 0.29 s  ClockTime = 1 s

Courant Number mean: 0.0638075 max: 0.857549
Interface Courant Number mean: 0.0054552 max: 0.698036
deltaT = 0.00169542
Time = 0.0983046

PIMPLE: iteration 1
smoothSolver:  Solving for alpha.water, Initial residual = 0.00268673, Final residual = 6.03218e-10, No Iterations 3
Phase-1 volume fraction = 0.130194  Min(alpha.water) = -5.78866e-14  Max(alpha.water) = 1
MULES: Correcting alpha.water
MULES: Correcting alpha.water
Phase-1 volume fraction = 0.130194  Min(alpha.water) = -2.20087e-07  Max(alpha.water) = 1
DICPCG:  Solving for p_rgh, Initial residual = 0.0266924, Final residual = 0.000660097, No Iterations 1
time step continuity errors : sum local = 0.000338817, global = -9.18287e-09, cumulative = 0.000330984
DICPCG:  Solving for p_rgh, Initial residual = 0.000722161, Final residual = 3.5727e-05, No Iterations 11
time step continuity errors : sum local = 1.79337e-05, global = 2.34921e-06, cumulative = 0.000333334
DICPCG:  Solving for p_rgh, Initial residual = 7.16083e-05, Final residual = 9.017e-08, No Iterations 44
time step continuity errors : sum local = 4.55476e-08, global = -4.23689e-09, cumulative = 0.000333329
ExecutionTime = 0.3 s  ClockTime = 1 s

Courant Number mean: 0.0648391 max: 0.883394
Interface Courant Number mean: 0.00525947 max: 0.785327
deltaT = 0.00169542
Time = 0.1

PIMPLE: iteration 1
smoothSolver:  Solving for alpha.water, Initial residual = 0.00274286, Final residual = 6.47355e-10, No Iterations 3
Phase-1 volume fraction = 0.130194  Min(alpha.water) = -5.04419e-14  Max(alpha.water) = 1
MULES: Correcting alpha.water
MULES: Correcting alpha.water
Phase-1 volume fraction = 0.130194  Min(alpha.water) = -3.34499e-07  Max(alpha.water) = 1
DICPCG:  Solving for p_rgh, Initial residual = 0.0250914, Final residual = 0.000620445, No Iterations 1
time step continuity errors : sum local = 0.000312992, global = -1.64184e-08, cumulative = 0.000333313
DICPCG:  Solving for p_rgh, Initial residual = 0.000690642, Final residual = 3.3032e-05, No Iterations 12
time step continuity errors : sum local = 1.63277e-05, global = 2.10815e-06, cumulative = 0.000335421
DICPCG:  Solving for p_rgh, Initial residual = 7.35112e-05, Final residual = 9.17152e-08, No Iterations 46
time step continuity errors : sum local = 4.56364e-08, global = -3.50546e-09, cumulative = 0.000335418
ExecutionTime = 0.33 s  ClockTime = 1 s

Courant Number mean: 0.0658419 max: 0.892844
Interface Courant Number mean: 0.00565492 max: 0.758863
deltaT = 0.00185185
Time = 0.101852

PIMPLE: iteration 1
smoothSolver:  Solving for alpha.water, Initial residual = 0.00303903, Final residual = 1.21746e-09, No Iterations 3
Phase-1 volume fraction = 0.130194  Min(alpha.water) = -4.23e-14  Max(alpha.water) = 1
MULES: Correcting alpha.water
MULES: Correcting alpha.water
Phase-1 volume fraction = 0.130194  Min(alpha.water) = -8.60122e-07  Max(alpha.water) = 1
DICPCG:  Solving for p_rgh, Initial residual = 0.0269875, Final residual = 0.000628669, No Iterations 1
time step continuity errors : sum local = 0.000375974, global = -8.4024e-09, cumulative = 0.000335409
DICPCG:  Solving for p_rgh, Initial residual = 0.00070759, Final residual = 2.88568e-05, No Iterations 12
time step continuity errors : sum local = 1.68676e-05, global = 2.8098e-06, cumulative = 0.000338219
DICPCG:  Solving for p_rgh, Initial residual = 7.22939e-05, Final residual = 8.88595e-08, No Iterations 43
time step continuity errors : sum local = 5.2323e-08, global = -7.34989e-09, cumulative = 0.000338212
ExecutionTime = 0.34 s  ClockTime = 1 s

Courant Number mean: 0.0729934 max: 0.966368
Interface Courant Number mean: 0.00615332 max: 0.881493
deltaT = 0.00185185
Time = 0.103704

PIMPLE: iteration 1
smoothSolver:  Solving for alpha.water, Initial residual = 0.00309488, Final residual = 1.39614e-09, No Iterations 3
Phase-1 volume fraction = 0.130194  Min(alpha.water) = -3.44089e-14  Max(alpha.water) = 1
MULES: Correcting alpha.water
MULES: Correcting alpha.water
Phase-1 volume fraction = 0.130194  Min(alpha.water) = -7.2343e-11  Max(alpha.water) = 1
DICPCG:  Solving for p_rgh, Initial residual = 0.0258961, Final residual = 0.000668388, No Iterations 1
time step continuity errors : sum local = 0.000395598, global = -3.34989e-08, cumulative = 0.000338178
DICPCG:  Solving for p_rgh, Initial residual = 0.000753471, Final residual = 3.00262e-05, No Iterations 11
time step continuity errors : sum local = 1.73985e-05, global = 2.85348e-06, cumulative = 0.000341032
DICPCG:  Solving for p_rgh, Initial residual = 8.6258e-05, Final residual = 8.53104e-08, No Iterations 45
time step continuity errors : sum local = 4.9806e-08, global = -5.99623e-09, cumulative = 0.000341026
ExecutionTime = 0.34 s  ClockTime = 1 s

Courant Number mean: 0.0740095 max: 0.932537
Interface Courant Number mean: 0.00609607 max: 0.837555
deltaT = 0.00192901
Time = 0.105633

PIMPLE: iteration 1
smoothSolver:  Solving for alpha.water, Initial residual = 0.0032887, Final residual = 1.96505e-09, No Iterations 3
Phase-1 volume fraction = 0.130194  Min(alpha.water) = -2.57629e-14  Max(alpha.water) = 1
MULES: Correcting alpha.water
MULES: Correcting alpha.water
Phase-1 volume fraction = 0.130194  Min(alpha.water) = -1.38106e-11  Max(alpha.water) = 1
DICPCG:  Solving for p_rgh, Initial residual = 0.027912, Final residual = 0.000697047, No Iterations 1
time step continuity errors : sum local = 0.000455906, global = -2.56036e-08, cumulative = 0.000341
DICPCG:  Solving for p_rgh, Initial residual = 0.00078697, Final residual = 3.35838e-05, No Iterations 11
time step continuity errors : sum local = 2.14669e-05, global = 3.211e-06, cumulative = 0.000344211
DICPCG:  Solving for p_rgh, Initial residual = 8.89424e-05, Final residual = 8.04403e-08, No Iterations 45
time step continuity errors : sum local = 5.18176e-08, global = -5.66454e-09, cumulative = 0.000344205
ExecutionTime = 0.35 s  ClockTime = 1 s

Courant Number mean: 0.0782035 max: 0.935883
Interface Courant Number mean: 0.00650251 max: 0.935883
deltaT = 0.00201669
Time = 0.107649

PIMPLE: iteration 1
smoothSolver:  Solving for alpha.water, Initial residual = 0.00351837, Final residual = 2.68518e-09, No Iterations 3
Phase-1 volume fraction = 0.130194  Min(alpha.water) = -1.43472e-14  Max(alpha.water) = 1
MULES: Correcting alpha.water
MULES: Correcting alpha.water
Phase-1 volume fraction = 0.130194  Min(alpha.water) = -1.16039e-11  Max(alpha.water) = 1
DICPCG:  Solving for p_rgh, Initial residual = 0.0295338, Final residual = 0.000739362, No Iterations 1
time step continuity errors : sum local = 0.000541062, global = -2.90491e-08, cumulative = 0.000344176
DICPCG:  Solving for p_rgh, Initial residual = 0.000839844, Final residual = 3.15375e-05, No Iterations 12
time step continuity errors : sum local = 2.25468e-05, global = 3.30576e-06, cumulative = 0.000347482
DICPCG:  Solving for p_rgh, Initial residual = 9.92595e-05, Final residual = 9.98235e-08, No Iterations 45
time step continuity errors : sum local = 7.1958e-08, global = -7.49242e-09, cumulative = 0.000347475
ExecutionTime = 0.36 s  ClockTime = 1 s

Courant Number mean: 0.0830659 max: 0.931307
Interface Courant Number mean: 0.00693216 max: 0.931307
deltaT = 0.00211753
Time = 0.109767

PIMPLE: iteration 1
smoothSolver:  Solving for alpha.water, Initial residual = 0.003782, Final residual = 3.98286e-09, No Iterations 3
Phase-1 volume fraction = 0.130194  Min(alpha.water) = -1.86428e-15  Max(alpha.water) = 1
MULES: Correcting alpha.water
MULES: Correcting alpha.water
Phase-1 volume fraction = 0.130194  Min(alpha.water) = -4.00033e-08  Max(alpha.water) = 1
DICPCG:  Solving for p_rgh, Initial residual = 0.0318071, Final residual = 0.000626231, No Iterations 1
time step continuity errors : sum local = 0.000526877, global = -2.49087e-08, cumulative = 0.00034745
DICPCG:  Solving for p_rgh, Initial residual = 0.000727279, Final residual = 2.9204e-05, No Iterations 12
time step continuity errors : sum local = 2.38734e-05, global = 3.00372e-06, cumulative = 0.000350453
DICPCG:  Solving for p_rgh, Initial residual = 0.000100464, Final residual = 8.39578e-08, No Iterations 46
time step continuity errors : sum local = 6.92227e-08, global = -5.57612e-09, cumulative = 0.000350448
ExecutionTime = 0.37 s  ClockTime = 1 s

Courant Number mean: 0.0887879 max: 0.964647
Interface Courant Number mean: 0.00770156 max: 0.964647
deltaT = 0.00211753
Time = 0.111884

PIMPLE: iteration 1
smoothSolver:  Solving for alpha.water, Initial residual = 0.00381553, Final residual = 4.43047e-09, No Iterations 3
Phase-1 volume fraction = 0.130194  Min(alpha.water) = -1.3395e-15  Max(alpha.water) = 1
MULES: Correcting alpha.water
MULES: Correcting alpha.water
Phase-1 volume fraction = 0.130194  Min(alpha.water) = -2.44107e-08  Max(alpha.water) = 1
DICPCG:  Solving for p_rgh, Initial residual = 0.036163, Final residual = 0.000682124, No Iterations 1
time step continuity errors : sum local = 0.000585757, global = -1.21378e-08, cumulative = 0.000350436
DICPCG:  Solving for p_rgh, Initial residual = 0.000794978, Final residual = 3.05399e-05, No Iterations 12
time step continuity errors : sum local = 2.53794e-05, global = 3.76807e-06, cumulative = 0.000354204
DICPCG:  Solving for p_rgh, Initial residual = 0.000109848, Final residual = 9.34493e-08, No Iterations 46
time step continuity errors : sum local = 7.83248e-08, global = -2.61104e-09, cumulative = 0.000354201
ExecutionTime = 0.38 s  ClockTime = 1 s

Courant Number mean: 0.0903195 max: 1.0367
Interface Courant Number mean: 0.00791999 max: 1.0367
deltaT = 0.00200608
Time = 0.113891

PIMPLE: iteration 1
smoothSolver:  Solving for alpha.water, Initial residual = 0.00366578, Final residual = 3.44508e-09, No Iterations 3
Phase-1 volume fraction = 0.130194  Min(alpha.water) = -1.16376e-15  Max(alpha.water) = 1
MULES: Correcting alpha.water
MULES: Correcting alpha.water
Phase-1 volume fraction = 0.130194  Min(alpha.water) = -1.85927e-07  Max(alpha.water) = 1
DICPCG:  Solving for p_rgh, Initial residual = 0.0314265, Final residual = 0.000638432, No Iterations 1
time step continuity errors : sum local = 0.000474096, global = -3.29938e-08, cumulative = 0.000354168
DICPCG:  Solving for p_rgh, Initial residual = 0.00074523, Final residual = 2.52916e-05, No Iterations 12
time step continuity errors : sum local = 1.82623e-05, global = 3.23942e-06, cumulative = 0.000357408
DICPCG:  Solving for p_rgh, Initial residual = 9.49707e-05, Final residual = 8.89109e-08, No Iterations 46
time step continuity errors : sum local = 6.47392e-08, global = -3.07941e-09, cumulative = 0.000357405
ExecutionTime = 0.39 s  ClockTime = 1 s

Courant Number mean: 0.0867698 max: 1.05293
Interface Courant Number mean: 0.00786247 max: 1.05293
deltaT = 0.0019005
Time = 0.115791

PIMPLE: iteration 1
smoothSolver:  Solving for alpha.water, Initial residual = 0.00355687, Final residual = 2.57876e-09, No Iterations 3
Phase-1 volume fraction = 0.130194  Min(alpha.water) = -9.94837e-16  Max(alpha.water) = 1
MULES: Correcting alpha.water
MULES: Correcting alpha.water
Phase-1 volume fraction = 0.130194  Min(alpha.water) = -3.94803e-06  Max(alpha.water) = 1
DICPCG:  Solving for p_rgh, Initial residual = 0.0292147, Final residual = 0.000608158, No Iterations 1
time step continuity errors : sum local = 0.000399875, global = -3.52975e-08, cumulative = 0.000357369
DICPCG:  Solving for p_rgh, Initial residual = 0.000697371, Final residual = 2.51546e-05, No Iterations 12
time step continuity errors : sum local = 1.61087e-05, global = 2.63407e-06, cumulative = 0.000360003
DICPCG:  Solving for p_rgh, Initial residual = 8.2155e-05, Final residual = 9.99709e-08, No Iterations 46
time step continuity errors : sum local = 6.45694e-08, global = -3.22863e-09, cumulative = 0.00036
ExecutionTime = 0.4 s  ClockTime = 1 s

Courant Number mean: 0.0831959 max: 1.06231
Interface Courant Number mean: 0.00765237 max: 0.91926
deltaT = 0.00171045
Time = 0.117501

PIMPLE: iteration 1
smoothSolver:  Solving for alpha.water, Initial residual = 0.00325273, Final residual = 1.49301e-09, No Iterations 3
Phase-1 volume fraction = 0.130194  Min(alpha.water) = -8.52456e-16  Max(alpha.water) = 1
MULES: Correcting alpha.water
MULES: Correcting alpha.water
Phase-1 volume fraction = 0.130194  Min(alpha.water) = -1.10343e-08  Max(alpha.water) = 1
DICPCG:  Solving for p_rgh, Initial residual = 0.0264326, Final residual = 0.000613047, No Iterations 1
time step continuity errors : sum local = 0.000323583, global = -2.93791e-08, cumulative = 0.000359971
DICPCG:  Solving for p_rgh, Initial residual = 0.000694336, Final residual = 3.11079e-05, No Iterations 11
time step continuity errors : sum local = 1.60595e-05, global = 1.67441e-06, cumulative = 0.000361645
DICPCG:  Solving for p_rgh, Initial residual = 8.08703e-05, Final residual = 8.30604e-08, No Iterations 39
time step continuity errors : sum local = 4.31959e-08, global = 5.19669e-09, cumulative = 0.00036165
ExecutionTime = 0.4 s  ClockTime = 1 s

Courant Number mean: 0.0756143 max: 1.00957
Interface Courant Number mean: 0.00702315 max: 0.859038
deltaT = 0.00162493
Time = 0.119126

PIMPLE: iteration 1
smoothSolver:  Solving for alpha.water, Initial residual = 0.00311707, Final residual = 1.12786e-09, No Iterations 3
Phase-1 volume fraction = 0.130194  Min(alpha.water) = -7.22108e-16  Max(alpha.water) = 1
MULES: Correcting alpha.water
MULES: Correcting alpha.water
Phase-1 volume fraction = 0.130194  Min(alpha.water) = -3.42995e-07  Max(alpha.water) = 1
DICPCG:  Solving for p_rgh, Initial residual = 0.0246524, Final residual = 0.00062908, No Iterations 1
time step continuity errors : sum local = 0.000299533, global = -3.51916e-09, cumulative = 0.000361647
DICPCG:  Solving for p_rgh, Initial residual = 0.000723585, Final residual = 3.2002e-05, No Iterations 11
time step continuity errors : sum local = 1.49315e-05, global = 1.3993e-06, cumulative = 0.000363046
DICPCG:  Solving for p_rgh, Initial residual = 8.24355e-05, Final residual = 7.35845e-08, No Iterations 45
time step continuity errors : sum local = 3.458e-08, global = -4.19958e-09, cumulative = 0.000363042
ExecutionTime = 0.41 s  ClockTime = 1 s

Courant Number mean: 0.0725413 max: 1.0199
Interface Courant Number mean: 0.00676138 max: 0.962229
deltaT = 0.00154368
Time = 0.12067

PIMPLE: iteration 1
smoothSolver:  Solving for alpha.water, Initial residual = 0.00295837, Final residual = 8.43009e-10, No Iterations 3
Phase-1 volume fraction = 0.130194  Min(alpha.water) = -6.00802e-16  Max(alpha.water) = 1
MULES: Correcting alpha.water
MULES: Correcting alpha.water
Phase-1 volume fraction = 0.130194  Min(alpha.water) = -5.63418e-07  Max(alpha.water) = 1
DICPCG:  Solving for p_rgh, Initial residual = 0.0231596, Final residual = 0.000636403, No Iterations 1
time step continuity errors : sum local = 0.000274502, global = -2.03304e-08, cumulative = 0.000363022
DICPCG:  Solving for p_rgh, Initial residual = 0.000721714, Final residual = 3.36359e-05, No Iterations 11
time step continuity errors : sum local = 1.42515e-05, global = 1.14179e-06, cumulative = 0.000364163
DICPCG:  Solving for p_rgh, Initial residual = 8.38397e-05, Final residual = 7.63395e-08, No Iterations 45
time step continuity errors : sum local = 3.25582e-08, global = -2.93198e-09, cumulative = 0.00036416
ExecutionTime = 0.42 s  ClockTime = 1 s

Courant Number mean: 0.0695848 max: 1.01639
Interface Courant Number mean: 0.00636775 max: 0.943182
deltaT = 0.0014665
Time = 0.122137

PIMPLE: iteration 1
smoothSolver:  Solving for alpha.water, Initial residual = 0.00283413, Final residual = 6.17777e-10, No Iterations 3
Phase-1 volume fraction = 0.130194  Min(alpha.water) = -4.856e-16  Max(alpha.water) = 1
MULES: Correcting alpha.water
MULES: Correcting alpha.water
Phase-1 volume fraction = 0.130194  Min(alpha.water) = -2.67875e-08  Max(alpha.water) = 1
DICPCG:  Solving for p_rgh, Initial residual = 0.0211989, Final residual = 0.000600366, No Iterations 1
time step continuity errors : sum local = 0.000236252, global = -5.89498e-09, cumulative = 0.000364154
DICPCG:  Solving for p_rgh, Initial residual = 0.000700868, Final residual = 3.49974e-05, No Iterations 8
time step continuity errors : sum local = 1.35548e-05, global = 1.17973e-07, cumulative = 0.000364272
DICPCG:  Solving for p_rgh, Initial residual = 8.18736e-05, Final residual = 9.87989e-08, No Iterations 41
time step continuity errors : sum local = 3.8462e-08, global = 3.71007e-09, cumulative = 0.000364276
ExecutionTime = 0.43 s  ClockTime = 1 s

Courant Number mean: 0.0667039 max: 1.0052
Interface Courant Number mean: 0.00601576 max: 0.918253
deltaT = 0.00139317
Time = 0.12353

PIMPLE: iteration 1
smoothSolver:  Solving for alpha.water, Initial residual = 0.00272015, Final residual = 4.54937e-10, No Iterations 3
Phase-1 volume fraction = 0.130194  Min(alpha.water) = -4.41347e-16  Max(alpha.water) = 1
MULES: Correcting alpha.water
MULES: Correcting alpha.water
Phase-1 volume fraction = 0.130194  Min(alpha.water) = -4.70304e-10  Max(alpha.water) = 1
DICPCG:  Solving for p_rgh, Initial residual = 0.020561, Final residual = 0.000612341, No Iterations 1
time step continuity errors : sum local = 0.000221701, global = 1.19435e-08, cumulative = 0.000364288
DICPCG:  Solving for p_rgh, Initial residual = 0.000704701, Final residual = 3.3882e-05, No Iterations 7
time step continuity errors : sum local = 1.20918e-05, global = 2.57271e-08, cumulative = 0.000364314
DICPCG:  Solving for p_rgh, Initial residual = 7.28826e-05, Final residual = 9.45208e-08, No Iterations 45
time step continuity errors : sum local = 3.38812e-08, global = 6.89329e-10, cumulative = 0.000364315
ExecutionTime = 0.43 s  ClockTime = 1 s

Courant Number mean: 0.063885 max: 0.990837
Interface Courant Number mean: 0.00559985 max: 0.885535
deltaT = 0.00139317
Time = 0.124923

PIMPLE: iteration 1
smoothSolver:  Solving for alpha.water, Initial residual = 0.00273962, Final residual = 4.68523e-10, No Iterations 3
Phase-1 volume fraction = 0.130194  Min(alpha.water) = -4.09547e-16  Max(alpha.water) = 1
MULES: Correcting alpha.water
MULES: Correcting alpha.water
Phase-1 volume fraction = 0.130194  Min(alpha.water) = -1.57477e-09  Max(alpha.water) = 1
DICPCG:  Solving for p_rgh, Initial residual = 0.0204341, Final residual = 0.00054057, No Iterations 1
time step continuity errors : sum local = 0.000201197, global = 2.84717e-09, cumulative = 0.000364317
DICPCG:  Solving for p_rgh, Initial residual = 0.000631053, Final residual = 3.0852e-05, No Iterations 7
time step continuity errors : sum local = 1.13304e-05, global = 1.81029e-08, cumulative = 0.000364335
DICPCG:  Solving for p_rgh, Initial residual = 6.58544e-05, Final residual = 9.12946e-08, No Iterations 46
time step continuity errors : sum local = 3.36888e-08, global = -7.61886e-11, cumulative = 0.000364335
ExecutionTime = 0.44 s  ClockTime = 1 s

Courant Number mean: 0.0643829 max: 1.03623
Interface Courant Number mean: 0.00543963 max: 0.889707
deltaT = 0.00131985
Time = 0.126243

PIMPLE: iteration 1
smoothSolver:  Solving for alpha.water, Initial residual = 0.00264195, Final residual = 3.46124e-10, No Iterations 3
Phase-1 volume fraction = 0.130194  Min(alpha.water) = -3.78541e-16  Max(alpha.water) = 1
MULES: Correcting alpha.water
MULES: Correcting alpha.water
Phase-1 volume fraction = 0.130194  Min(alpha.water) = -1.56091e-09  Max(alpha.water) = 1
DICPCG:  Solving for p_rgh, Initial residual = 0.0232114, Final residual = 0.00040545, No Iterations 1
time step continuity errors : sum local = 0.000147317, global = 1.13135e-09, cumulative = 0.000364337
DICPCG:  Solving for p_rgh, Initial residual = 0.000472212, Final residual = 2.27974e-05, No Iterations 8
time step continuity errors : sum local = 8.12685e-06, global = 2.57033e-08, cumulative = 0.000364362
DICPCG:  Solving for p_rgh, Initial residual = 5.78316e-05, Final residual = 7.8891e-08, No Iterations 45
time step continuity errors : sum local = 2.82694e-08, global = -7.06292e-10, cumulative = 0.000364362
ExecutionTime = 0.45 s  ClockTime = 1 s

Courant Number mean: 0.0613794 max: 1.01735
Interface Courant Number mean: 0.00494056 max: 0.832761
deltaT = 0.00125038
Time = 0.127493

PIMPLE: iteration 1
smoothSolver:  Solving for alpha.water, Initial residual = 0.00254105, Final residual = 2.54808e-10, No Iterations 3
Phase-1 volume fraction = 0.130194  Min(alpha.water) = -3.50991e-16  Max(alpha.water) = 1
MULES: Correcting alpha.water
MULES: Correcting alpha.water
Phase-1 volume fraction = 0.130194  Min(alpha.water) = -2.35756e-09  Max(alpha.water) = 1
DICPCG:  Solving for p_rgh, Initial residual = 0.0225489, Final residual = 0.00041453, No Iterations 1
time step continuity errors : sum local = 0.000135144, global = -2.86822e-09, cumulative = 0.000364359
DICPCG:  Solving for p_rgh, Initial residual = 0.000488988, Final residual = 2.43313e-05, No Iterations 8
time step continuity errors : sum local = 7.79574e-06, global = 2.09142e-08, cumulative = 0.00036438
DICPCG:  Solving for p_rgh, Initial residual = 6.88698e-05, Final residual = 7.46175e-08, No Iterations 44
time step continuity errors : sum local = 2.4039e-08, global = 3.08027e-09, cumulative = 0.000364383
ExecutionTime = 0.46 s  ClockTime = 1 s

Courant Number mean: 0.0585105 max: 0.979948
Interface Courant Number mean: 0.00472832 max: 0.902927
deltaT = 0.00125038
Time = 0.128744

PIMPLE: iteration 1
smoothSolver:  Solving for alpha.water, Initial residual = 0.00256322, Final residual = 2.57584e-10, No Iterations 3
Phase-1 volume fraction = 0.130194  Min(alpha.water) = -3.3928e-16  Max(alpha.water) = 1
MULES: Correcting alpha.water
MULES: Correcting alpha.water
Phase-1 volume fraction = 0.130194  Min(alpha.water) = -1.25409e-09  Max(alpha.water) = 1
DICPCG:  Solving for p_rgh, Initial residual = 0.0215037, Final residual = 0.000457518, No Iterations 1
time step continuity errors : sum local = 0.000146166, global = 7.87584e-09, cumulative = 0.000364391
DICPCG:  Solving for p_rgh, Initial residual = 0.000535566, Final residual = 2.48393e-05, No Iterations 9
time step continuity errors : sum local = 7.80757e-06, global = 6.55155e-08, cumulative = 0.000364456
DICPCG:  Solving for p_rgh, Initial residual = 7.33064e-05, Final residual = 8.76674e-08, No Iterations 45
time step continuity errors : sum local = 2.77412e-08, global = 4.80795e-10, cumulative = 0.000364457
ExecutionTime = 0.46 s  ClockTime = 1 s

Courant Number mean: 0.0588741 max: 0.969344
Interface Courant Number mean: 0.00491254 max: 0.874879
deltaT = 0.00125038
Time = 0.129994

PIMPLE: iteration 1
smoothSolver:  Solving for alpha.water, Initial residual = 0.00259083, Final residual = 2.5726e-10, No Iterations 3
Phase-1 volume fraction = 0.130194  Min(alpha.water) = -3.25704e-16  Max(alpha.water) = 1
MULES: Correcting alpha.water
MULES: Correcting alpha.water
Phase-1 volume fraction = 0.130194  Min(alpha.water) = -1.26391e-09  Max(alpha.water) = 1
DICPCG:  Solving for p_rgh, Initial residual = 0.0210882, Final residual = 0.000489828, No Iterations 1
time step continuity errors : sum local = 0.000153531, global = -1.49672e-09, cumulative = 0.000364455
DICPCG:  Solving for p_rgh, Initial residual = 0.000578352, Final residual = 2.77567e-05, No Iterations 11
time step continuity errors : sum local = 8.5632e-06, global = 3.12479e-07, cumulative = 0.000364768
DICPCG:  Solving for p_rgh, Initial residual = 7.23197e-05, Final residual = 9.35284e-08, No Iterations 44
time step continuity errors : sum local = 2.90828e-08, global = -6.54844e-10, cumulative = 0.000364767
ExecutionTime = 0.47 s  ClockTime = 1 s

Courant Number mean: 0.0592803 max: 0.943941
Interface Courant Number mean: 0.00494329 max: 0.943941
deltaT = 0.00125038
Time = 0.131244

PIMPLE: iteration 1
smoothSolver:  Solving for alpha.water, Initial residual = 0.00262952, Final residual = 2.55242e-10, No Iterations 3
Phase-1 volume fraction = 0.130194  Min(alpha.water) = -3.10894e-16  Max(alpha.water) = 1
MULES: Correcting alpha.water
MULES: Correcting alpha.water
Phase-1 volume fraction = 0.130194  Min(alpha.water) = -1.35741e-10  Max(alpha.water) = 1
DICPCG:  Solving for p_rgh, Initial residual = 0.0191008, Final residual = 0.000543295, No Iterations 1
time step continuity errors : sum local = 0.000166638, global = -3.84099e-09, cumulative = 0.000364763
DICPCG:  Solving for p_rgh, Initial residual = 0.000656569, Final residual = 3.22736e-05, No Iterations 8
time step continuity errors : sum local = 9.75824e-06, global = 2.20005e-08, cumulative = 0.000364785
DICPCG:  Solving for p_rgh, Initial residual = 0.000104896, Final residual = 8.37911e-08, No Iterations 44
time step continuity errors : sum local = 2.5499e-08, global = 1.87888e-09, cumulative = 0.000364787
ExecutionTime = 0.48 s  ClockTime = 1 s

Courant Number mean: 0.0597438 max: 0.892784
Interface Courant Number mean: 0.00504249 max: 0.892784
deltaT = 0.00133969
Time = 0.132584

PIMPLE: iteration 1
smoothSolver:  Solving for alpha.water, Initial residual = 0.00285526, Final residual = 3.82191e-10, No Iterations 3
Phase-1 volume fraction = 0.130194  Min(alpha.water) = -2.93293e-16  Max(alpha.water) = 1
MULES: Correcting alpha.water
MULES: Correcting alpha.water
Phase-1 volume fraction = 0.130194  Min(alpha.water) = -2.90057e-10  Max(alpha.water) = 1
DICPCG:  Solving for p_rgh, Initial residual = 0.0204808, Final residual = 0.000574706, No Iterations 1
time step continuity errors : sum local = 0.0002006, global = 9.31827e-09, cumulative = 0.000364796
DICPCG:  Solving for p_rgh, Initial residual = 0.000728108, Final residual = 3.59325e-05, No Iterations 10
time step continuity errors : sum local = 1.23639e-05, global = 1.45883e-07, cumulative = 0.000364942
DICPCG:  Solving for p_rgh, Initial residual = 0.000117906, Final residual = 6.606e-08, No Iterations 45
time step continuity errors : sum local = 2.29201e-08, global = 1.98959e-09, cumulative = 0.000364944
ExecutionTime = 0.49 s  ClockTime = 1 s

Courant Number mean: 0.0645599 max: 0.895098
Interface Courant Number mean: 0.00538825 max: 0.895098
deltaT = 0.00145133
Time = 0.134035

PIMPLE: iteration 1
smoothSolver:  Solving for alpha.water, Initial residual = 0.00313665, Final residual = 6.1425e-10, No Iterations 3
Phase-1 volume fraction = 0.130194  Min(alpha.water) = -2.71521e-16  Max(alpha.water) = 1
MULES: Correcting alpha.water
MULES: Correcting alpha.water
Phase-1 volume fraction = 0.130194  Min(alpha.water) = -1.4887e-10  Max(alpha.water) = 1
DICPCG:  Solving for p_rgh, Initial residual = 0.0199108, Final residual = 0.000679706, No Iterations 1
time step continuity errors : sum local = 0.000274959, global = 7.19968e-09, cumulative = 0.000364951
DICPCG:  Solving for p_rgh, Initial residual = 0.0008366, Final residual = 3.94702e-05, No Iterations 13
time step continuity errors : sum local = 1.57611e-05, global = 9.75826e-07, cumulative = 0.000365927
DICPCG:  Solving for p_rgh, Initial residual = 0.00014216, Final residual = 7.62598e-08, No Iterations 50
time step continuity errors : sum local = 3.08502e-08, global = -1.53921e-09, cumulative = 0.000365926
ExecutionTime = 0.5 s  ClockTime = 1 s

Courant Number mean: 0.0705177 max: 0.879463
Interface Courant Number mean: 0.00611796 max: 0.879463
deltaT = 0.00159647
Time = 0.135632

PIMPLE: iteration 1
smoothSolver:  Solving for alpha.water, Initial residual = 0.00348637, Final residual = 1.08682e-09, No Iterations 3
Phase-1 volume fraction = 0.130194  Min(alpha.water) = -2.42182e-16  Max(alpha.water) = 1
MULES: Correcting alpha.water
MULES: Correcting alpha.water
Phase-1 volume fraction = 0.130194  Min(alpha.water) = -1.20442e-10  Max(alpha.water) = 1
DICPCG:  Solving for p_rgh, Initial residual = 0.0207373, Final residual = 0.000671134, No Iterations 1
time step continuity errors : sum local = 0.000327938, global = -1.38547e-08, cumulative = 0.000365912
DICPCG:  Solving for p_rgh, Initial residual = 0.000821366, Final residual = 4.0596e-05, No Iterations 11
time step continuity errors : sum local = 1.95591e-05, global = 6.22793e-07, cumulative = 0.000366535
DICPCG:  Solving for p_rgh, Initial residual = 0.000124887, Final residual = 6.96532e-08, No Iterations 49
time step continuity errors : sum local = 3.39431e-08, global = -4.44651e-10, cumulative = 0.000366534
ExecutionTime = 0.5 s  ClockTime = 1 s

Courant Number mean: 0.0782192 max: 0.903317
Interface Courant Number mean: 0.00680385 max: 0.903317
deltaT = 0.00159647
Time = 0.137228

PIMPLE: iteration 1
smoothSolver:  Solving for alpha.water, Initial residual = 0.00349081, Final residual = 1.10704e-09, No Iterations 3
Phase-1 volume fraction = 0.130194  Min(alpha.water) = -2.07056e-16  Max(alpha.water) = 1
MULES: Correcting alpha.water
MULES: Correcting alpha.water
Phase-1 volume fraction = 0.130194  Min(alpha.water) = -1.39192e-11  Max(alpha.water) = 1
DICPCG:  Solving for p_rgh, Initial residual = 0.0214758, Final residual = 0.000644207, No Iterations 1
time step continuity errors : sum local = 0.000320435, global = -1.20407e-09, cumulative = 0.000366533
DICPCG:  Solving for p_rgh, Initial residual = 0.000769701, Final residual = 3.80897e-05, No Iterations 9
time step continuity errors : sum local = 1.86843e-05, global = 1.56176e-07, cumulative = 0.000366689
DICPCG:  Solving for p_rgh, Initial residual = 0.000113899, Final residual = 8.28731e-08, No Iterations 49
time step continuity errors : sum local = 4.10861e-08, global = -8.83238e-10, cumulative = 0.000366688
ExecutionTime = 0.51 s  ClockTime = 1 s

Courant Number mean: 0.0787559 max: 0.864982
Interface Courant Number mean: 0.00658318 max: 0.864982
deltaT = 0.00159647
Time = 0.138825

PIMPLE: iteration 1
smoothSolver:  Solving for alpha.water, Initial residual = 0.00354785, Final residual = 1.1307e-09, No Iterations 3
Phase-1 volume fraction = 0.130194  Min(alpha.water) = -1.76763e-16  Max(alpha.water) = 1
MULES: Correcting alpha.water
MULES: Correcting alpha.water
Phase-1 volume fraction = 0.130194  Min(alpha.water) = -9.50681e-12  Max(alpha.water) = 1
DICPCG:  Solving for p_rgh, Initial residual = 0.0218629, Final residual = 0.000597481, No Iterations 1
time step continuity errors : sum local = 0.000304001, global = -5.0098e-09, cumulative = 0.000366683
DICPCG:  Solving for p_rgh, Initial residual = 0.000718558, Final residual = 2.6999e-05, No Iterations 14
time step continuity errors : sum local = 1.3541e-05, global = 1.24733e-06, cumulative = 0.00036793
DICPCG:  Solving for p_rgh, Initial residual = 0.000108562, Final residual = 6.43173e-08, No Iterations 50
time step continuity errors : sum local = 3.27597e-08, global = -1.92444e-09, cumulative = 0.000367929
ExecutionTime = 0.52 s  ClockTime = 1 s

Courant Number mean: 0.0793032 max: 0.839574
Interface Courant Number mean: 0.00734711 max: 0.839574
deltaT = 0.00159647
Time = 0.140421

PIMPLE: iteration 1
smoothSolver:  Solving for alpha.water, Initial residual = 0.0035478, Final residual = 1.15086e-09, No Iterations 3
Phase-1 volume fraction = 0.130194  Min(alpha.water) = -1.68014e-16  Max(alpha.water) = 1
MULES: Correcting alpha.water
MULES: Correcting alpha.water
Phase-1 volume fraction = 0.130194  Min(alpha.water) = -2.36872e-11  Max(alpha.water) = 1
DICPCG:  Solving for p_rgh, Initial residual = 0.0209171, Final residual = 0.00061313, No Iterations 1
time step continuity errors : sum local = 0.000317329, global = -1.85306e-08, cumulative = 0.00036791
DICPCG:  Solving for p_rgh, Initial residual = 0.000738804, Final residual = 3.67589e-05, No Iterations 11
time step continuity errors : sum local = 1.87776e-05, global = 5.51668e-07, cumulative = 0.000368462
DICPCG:  Solving for p_rgh, Initial residual = 0.000114444, Final residual = 9.1933e-08, No Iterations 46
time step continuity errors : sum local = 4.75362e-08, global = -3.54343e-09, cumulative = 0.000368458
ExecutionTime = 0.53 s  ClockTime = 1 s

Courant Number mean: 0.0798831 max: 0.827834
Interface Courant Number mean: 0.00746672 max: 0.827834
deltaT = 0.00159647
Time = 0.142018

PIMPLE: iteration 1
smoothSolver:  Solving for alpha.water, Initial residual = 0.00368053, Final residual = 1.16828e-09, No Iterations 3
Phase-1 volume fraction = 0.130194  Min(alpha.water) = -1.57368e-16  Max(alpha.water) = 1
MULES: Correcting alpha.water
MULES: Correcting alpha.water
Phase-1 volume fraction = 0.130194  Min(alpha.water) = -1.09927e-10  Max(alpha.water) = 1
DICPCG:  Solving for p_rgh, Initial residual = 0.0214009, Final residual = 0.000533131, No Iterations 1
time step continuity errors : sum local = 0.000287615, global = -1.10271e-08, cumulative = 0.000368447
DICPCG:  Solving for p_rgh, Initial residual = 0.0006326, Final residual = 2.32332e-05, No Iterations 14
time step continuity errors : sum local = 1.2347e-05, global = 9.59705e-07, cumulative = 0.000369407
DICPCG:  Solving for p_rgh, Initial residual = 0.000101843, Final residual = 9.60806e-08, No Iterations 33
time step continuity errors : sum local = 5.18147e-08, global = -8.96024e-09, cumulative = 0.000369398
ExecutionTime = 0.54 s  ClockTime = 1 s

Courant Number mean: 0.0804049 max: 0.836282
Interface Courant Number mean: 0.00741855 max: 0.836282
deltaT = 0.00159647
Time = 0.143614

PIMPLE: iteration 1
smoothSolver:  Solving for alpha.water, Initial residual = 0.00372452, Final residual = 1.17066e-09, No Iterations 3
Phase-1 volume fraction = 0.130194  Min(alpha.water) = -1.44655e-16  Max(alpha.water) = 1
MULES: Correcting alpha.water
MULES: Correcting alpha.water
Phase-1 volume fraction = 0.130194  Min(alpha.water) = -7.57601e-08  Max(alpha.water) = 1
DICPCG:  Solving for p_rgh, Initial residual = 0.0228909, Final residual = 0.000473201, No Iterations 1
time step continuity errors : sum local = 0.000265833, global = -2.09671e-08, cumulative = 0.000369377
DICPCG:  Solving for p_rgh, Initial residual = 0.000563485, Final residual = 1.96179e-05, No Iterations 14
time step continuity errors : sum local = 1.08227e-05, global = 7.11856e-07, cumulative = 0.000370089
DICPCG:  Solving for p_rgh, Initial residual = 9.0396e-05, Final residual = 9.4375e-08, No Iterations 48
time step continuity errors : sum local = 5.27714e-08, global = 1.26597e-10, cumulative = 0.000370089
ExecutionTime = 0.54 s  ClockTime = 1 s

Courant Number mean: 0.0809569 max: 0.852487
Interface Courant Number mean: 0.00836293 max: 0.852487
deltaT = 0.00159647
Time = 0.145211

PIMPLE: iteration 1
smoothSolver:  Solving for alpha.water, Initial residual = 0.00376139, Final residual = 1.16536e-09, No Iterations 3
Phase-1 volume fraction = 0.130194  Min(alpha.water) = -1.3036e-16  Max(alpha.water) = 1
MULES: Correcting alpha.water
MULES: Correcting alpha.water
Phase-1 volume fraction = 0.130194  Min(alpha.water) = -3.49491e-08  Max(alpha.water) = 1
DICPCG:  Solving for p_rgh, Initial residual = 0.0208026, Final residual = 0.000499471, No Iterations 1
time step continuity errors : sum local = 0.000277068, global = 4.85193e-09, cumulative = 0.000370094
DICPCG:  Solving for p_rgh, Initial residual = 0.00059283, Final residual = 1.91383e-05, No Iterations 14
time step continuity errors : sum local = 1.04481e-05, global = 8.40192e-07, cumulative = 0.000370934
DICPCG:  Solving for p_rgh, Initial residual = 9.08563e-05, Final residual = 9.7303e-08, No Iterations 48
time step continuity errors : sum local = 5.36746e-08, global = 5.40904e-10, cumulative = 0.000370934
ExecutionTime = 0.55 s  ClockTime = 1 s

Courant Number mean: 0.0815052 max: 0.848086
Interface Courant Number mean: 0.00810028 max: 0.848086
deltaT = 0.00159647
Time = 0.146807

PIMPLE: iteration 1
smoothSolver:  Solving for alpha.water, Initial residual = 0.00378773, Final residual = 1.18242e-09, No Iterations 3
Phase-1 volume fraction = 0.130194  Min(alpha.water) = -1.15532e-16  Max(alpha.water) = 1
MULES: Correcting alpha.water
MULES: Correcting alpha.water
Phase-1 volume fraction = 0.130194  Min(alpha.water) = -7.24477e-09  Max(alpha.water) = 1
DICPCG:  Solving for p_rgh, Initial residual = 0.0208802, Final residual = 0.000526933, No Iterations 1
time step continuity errors : sum local = 0.000291383, global = -4.60072e-09, cumulative = 0.00037093
DICPCG:  Solving for p_rgh, Initial residual = 0.000620625, Final residual = 2.20295e-05, No Iterations 14
time step continuity errors : sum local = 1.19922e-05, global = 1.26669e-06, cumulative = 0.000372197
DICPCG:  Solving for p_rgh, Initial residual = 9.36343e-05, Final residual = 8.26585e-08, No Iterations 48
time step continuity errors : sum local = 4.55922e-08, global = -1.75825e-09, cumulative = 0.000372195
ExecutionTime = 0.56 s  ClockTime = 1 s

Courant Number mean: 0.0818783 max: 0.837507
Interface Courant Number mean: 0.00803093 max: 0.837507
deltaT = 0.00159647
Time = 0.148404

PIMPLE: iteration 1
smoothSolver:  Solving for alpha.water, Initial residual = 0.00382109, Final residual = 1.19482e-09, No Iterations 3
Phase-1 volume fraction = 0.130194  Min(alpha.water) = -9.99665e-17  Max(alpha.water) = 1
MULES: Correcting alpha.water
MULES: Correcting alpha.water
Phase-1 volume fraction = 0.130194  Min(alpha.water) = -1.15641e-09  Max(alpha.water) = 1
DICPCG:  Solving for p_rgh, Initial residual = 0.0192177, Final residual = 0.000515585, No Iterations 1
time step continuity errors : sum local = 0.000283479, global = -1.97952e-08, cumulative = 0.000372175
DICPCG:  Solving for p_rgh, Initial residual = 0.000617433, Final residual = 2.32318e-05, No Iterations 14
time step continuity errors : sum local = 1.25853e-05, global = 9.62602e-07, cumulative = 0.000373138
DICPCG:  Solving for p_rgh, Initial residual = 9.30036e-05, Final residual = 9.57951e-08, No Iterations 45
time step continuity errors : sum local = 5.25582e-08, global = -3.49651e-09, cumulative = 0.000373134
ExecutionTime = 0.57 s  ClockTime = 1 s

Courant Number mean: 0.0821588 max: 0.827528
Interface Courant Number mean: 0.00815451 max: 0.827528
deltaT = 0.00159647
Time = 0.15

PIMPLE: iteration 1
smoothSolver:  Solving for alpha.water, Initial residual = 0.00388321, Final residual = 1.20262e-09, No Iterations 3
Phase-1 volume fraction = 0.130194  Min(alpha.water) = -8.33565e-17  Max(alpha.water) = 1
MULES: Correcting alpha.water
MULES: Correcting alpha.water
Phase-1 volume fraction = 0.130194  Min(alpha.water) = -1.14656e-09  Max(alpha.water) = 1
DICPCG:  Solving for p_rgh, Initial residual = 0.0179256, Final residual = 0.000539618, No Iterations 1
time step continuity errors : sum local = 0.000296382, global = -1.2649e-08, cumulative = 0.000373121
DICPCG:  Solving for p_rgh, Initial residual = 0.000626393, Final residual = 2.94863e-05, No Iterations 9
time step continuity errors : sum local = 1.59838e-05, global = 8.86355e-08, cumulative = 0.00037321
DICPCG:  Solving for p_rgh, Initial residual = 9.32516e-05, Final residual = 9.61963e-08, No Iterations 45
time step continuity errors : sum local = 5.25698e-08, global = 3.16012e-09, cumulative = 0.000373213
ExecutionTime = 0.6 s  ClockTime = 1 s

Courant Number mean: 0.082403 max: 0.809735
Interface Courant Number mean: 0.00875518 max: 0.809735
deltaT = 0.00178571
Time = 0.151786

PIMPLE: iteration 1
smoothSolver:  Solving for alpha.water, Initial residual = 0.00443212, Final residual = 2.39596e-09, No Iterations 3
Phase-1 volume fraction = 0.130194  Min(alpha.water) = -6.87093e-17  Max(alpha.water) = 1
MULES: Correcting alpha.water
MULES: Correcting alpha.water
Phase-1 volume fraction = 0.130194  Min(alpha.water) = -1.14302e-09  Max(alpha.water) = 1
DICPCG:  Solving for p_rgh, Initial residual = 0.0196702, Final residual = 0.000602447, No Iterations 1
time step continuity errors : sum local = 0.000413956, global = 1.09965e-08, cumulative = 0.000373224
DICPCG:  Solving for p_rgh, Initial residual = 0.000696213, Final residual = 3.2041e-05, No Iterations 9
time step continuity errors : sum local = 2.16876e-05, global = 7.80163e-08, cumulative = 0.000373302
DICPCG:  Solving for p_rgh, Initial residual = 0.000113798, Final residual = 9.51761e-08, No Iterations 48
time step continuity errors : sum local = 6.49008e-08, global = -5.66453e-11, cumulative = 0.000373302
ExecutionTime = 0.61 s  ClockTime = 1 s

Courant Number mean: 0.0925175 max: 0.911837
Interface Courant Number mean: 0.0103344 max: 0.911837
deltaT = 0.00192857
Time = 0.153714

PIMPLE: iteration 1
smoothSolver:  Solving for alpha.water, Initial residual = 0.00487044, Final residual = 3.83644e-09, No Iterations 3
Phase-1 volume fraction = 0.130194  Min(alpha.water) = -5.7898e-17  Max(alpha.water) = 1
MULES: Correcting alpha.water
MULES: Correcting alpha.water
Phase-1 volume fraction = 0.130194  Min(alpha.water) = -1.56204e-09  Max(alpha.water) = 1
DICPCG:  Solving for p_rgh, Initial residual = 0.0187181, Final residual = 0.000663584, No Iterations 1
time step continuity errors : sum local = 0.000526761, global = -4.57053e-09, cumulative = 0.000373298
DICPCG:  Solving for p_rgh, Initial residual = 0.000765745, Final residual = 3.41675e-05, No Iterations 8
time step continuity errors : sum local = 2.67668e-05, global = -2.37686e-09, cumulative = 0.000373295
DICPCG:  Solving for p_rgh, Initial residual = 0.00012943, Final residual = 6.18444e-08, No Iterations 45
time step continuity errors : sum local = 4.8694e-08, global = -3.12826e-09, cumulative = 0.000373292
ExecutionTime = 0.61 s  ClockTime = 1 s

Courant Number mean: 0.100293 max: 0.977735
Interface Courant Number mean: 0.0107655 max: 0.977735
deltaT = 0.00192857
Time = 0.155643

PIMPLE: iteration 1
smoothSolver:  Solving for alpha.water, Initial residual = 0.00494856, Final residual = 3.87667e-09, No Iterations 3
Phase-1 volume fraction = 0.130194  Min(alpha.water) = -5.55279e-17  Max(alpha.water) = 1
MULES: Correcting alpha.water
MULES: Correcting alpha.water
Phase-1 volume fraction = 0.130194  Min(alpha.water) = -1.2854e-09  Max(alpha.water) = 1
DICPCG:  Solving for p_rgh, Initial residual = 0.0186053, Final residual = 0.000620368, No Iterations 1
time step continuity errors : sum local = 0.000498437, global = -4.17731e-09, cumulative = 0.000373288
DICPCG:  Solving for p_rgh, Initial residual = 0.000716381, Final residual = 3.52247e-05, No Iterations 8
time step continuity errors : sum local = 2.79262e-05, global = -2.10689e-08, cumulative = 0.000373267
DICPCG:  Solving for p_rgh, Initial residual = 0.000127616, Final residual = 6.87502e-08, No Iterations 50
time step continuity errors : sum local = 5.47456e-08, global = -2.70957e-09, cumulative = 0.000373264
ExecutionTime = 0.62 s  ClockTime = 1 s

Courant Number mean: 0.100531 max: 0.975641
Interface Courant Number mean: 0.0110778 max: 0.975641
deltaT = 0.00192857
Time = 0.157571

PIMPLE: iteration 1
smoothSolver:  Solving for alpha.water, Initial residual = 0.00502247, Final residual = 3.87943e-09, No Iterations 3
Phase-1 volume fraction = 0.130194  Min(alpha.water) = -5.20323e-17  Max(alpha.water) = 1
MULES: Correcting alpha.water
MULES: Correcting alpha.water
Phase-1 volume fraction = 0.130194  Min(alpha.water) = -5.24814e-07  Max(alpha.water) = 1
DICPCG:  Solving for p_rgh, Initial residual = 0.0185344, Final residual = 0.000609203, No Iterations 1
time step continuity errors : sum local = 0.000497913, global = 3.20141e-09, cumulative = 0.000373267
DICPCG:  Solving for p_rgh, Initial residual = 0.000711448, Final residual = 2.68537e-05, No Iterations 8
time step continuity errors : sum local = 2.17008e-05, global = -1.89826e-08, cumulative = 0.000373248
DICPCG:  Solving for p_rgh, Initial residual = 0.000115647, Final residual = 8.82279e-08, No Iterations 35
time step continuity errors : sum local = 7.16295e-08, global = -2.08357e-09, cumulative = 0.000373246
ExecutionTime = 0.63 s  ClockTime = 1 s

Courant Number mean: 0.100792 max: 0.968917
Interface Courant Number mean: 0.0112631 max: 0.968917
deltaT = 0.00192857
Time = 0.1595

PIMPLE: iteration 1
smoothSolver:  Solving for alpha.water, Initial residual = 0.00509742, Final residual = 3.85572e-09, No Iterations 3
Phase-1 volume fraction = 0.130194  Min(alpha.water) = -4.76708e-17  Max(alpha.water) = 1
MULES: Correcting alpha.water
MULES: Correcting alpha.water
Phase-1 volume fraction = 0.130194  Min(alpha.water) = -1.49774e-06  Max(alpha.water) = 1
DICPCG:  Solving for p_rgh, Initial residual = 0.0220037, Final residual = 0.00056425, No Iterations 1
time step continuity errors : sum local = 0.00048457, global = -1.35395e-09, cumulative = 0.000373245
DICPCG:  Solving for p_rgh, Initial residual = 0.00066447, Final residual = 2.95801e-05, No Iterations 9
time step continuity errors : sum local = 2.50284e-05, global = -1.02547e-08, cumulative = 0.000373235
DICPCG:  Solving for p_rgh, Initial residual = 0.0001117, Final residual = 7.1024e-08, No Iterations 50
time step continuity errors : sum local = 6.04704e-08, global = -2.20943e-09, cumulative = 0.000373233
ExecutionTime = 0.63 s  ClockTime = 1 s

Courant Number mean: 0.100944 max: 0.954134
Interface Courant Number mean: 0.0126673 max: 0.954134
deltaT = 0.00192857
Time = 0.161429

PIMPLE: iteration 1
smoothSolver:  Solving for alpha.water, Initial residual = 0.00516236, Final residual = 3.80529e-09, No Iterations 3
Phase-1 volume fraction = 0.130194  Min(alpha.water) = -4.30378e-17  Max(alpha.water) = 1
MULES: Correcting alpha.water
MULES: Correcting alpha.water
Phase-1 volume fraction = 0.130194  Min(alpha.water) = -9.67035e-07  Max(alpha.water) = 1
DICPCG:  Solving for p_rgh, Initial residual = 0.0213714, Final residual = 0.00056624, No Iterations 1
[...]
ExecutionTime = 4.72 s  ClockTime = 5 s

Courant Number mean: 0.14507 max: 0.735067
Interface Courant Number mean: 0.0307636 max: 0.664913
deltaT = 0.00238095
Time = 0.952381

PIMPLE: iteration 1
smoothSolver:  Solving for alpha.water, Initial residual = 0.0077641, Final residual = 2.70333e-10, No Iterations 4
Phase-1 volume fraction = 0.127293  Min(alpha.water) = -2.11575e-17  Max(alpha.water) = 1
MULES: Correcting alpha.water
MULES: Correcting alpha.water
Phase-1 volume fraction = 0.127293  Min(alpha.water) = -7.00377e-07  Max(alpha.water) = 1
DICPCG:  Solving for p_rgh, Initial residual = 0.0312291, Final residual = 0.000553252, No Iterations 2
time step continuity errors : sum local = 0.000399505, global = 6.1672e-08, cumulative = 0.00356634
DICPCG:  Solving for p_rgh, Initial residual = 0.00086153, Final residual = 4.13435e-05, No Iterations 8
time step continuity errors : sum local = 2.95348e-05, global = -9.93097e-07, cumulative = 0.00356534
DICPCG:  Solving for p_rgh, Initial residual = 0.000197886, Final residual = 9.4313e-08, No Iterations 45
time step continuity errors : sum local = 6.75692e-08, global = 2.84565e-09, cumulative = 0.00356535
ExecutionTime = 4.73 s  ClockTime = 5 s

Courant Number mean: 0.163503 max: 0.806986
Interface Courant Number mean: 0.0342363 max: 0.755164
deltaT = 0.0026455
Time = 0.955026

PIMPLE: iteration 1
smoothSolver:  Solving for alpha.water, Initial residual = 0.00857831, Final residual = 5.04864e-10, No Iterations 4
Phase-1 volume fraction = 0.127293  Min(alpha.water) = -2.07402e-17  Max(alpha.water) = 1
MULES: Correcting alpha.water
MULES: Correcting alpha.water
Phase-1 volume fraction = 0.127293  Min(alpha.water) = -2.18204e-06  Max(alpha.water) = 1
DICPCG:  Solving for p_rgh, Initial residual = 0.0375948, Final residual = 0.000984371, No Iterations 2
time step continuity errors : sum local = 0.00086302, global = -8.83559e-08, cumulative = 0.00356526
DICPCG:  Solving for p_rgh, Initial residual = 0.0013737, Final residual = 4.84958e-05, No Iterations 9
time step continuity errors : sum local = 4.20338e-05, global = -2.25108e-06, cumulative = 0.00356301
DICPCG:  Solving for p_rgh, Initial residual = 0.000332816, Final residual = 8.49896e-08, No Iterations 45
time step continuity errors : sum local = 7.38051e-08, global = 8.52444e-09, cumulative = 0.00356302
ExecutionTime = 4.74 s  ClockTime = 5 s

Courant Number mean: 0.181855 max: 0.902439
Interface Courant Number mean: 0.0384548 max: 0.844406
deltaT = 0.00281085
Time = 0.957837

PIMPLE: iteration 1
smoothSolver:  Solving for alpha.water, Initial residual = 0.00893907, Final residual = 6.80619e-10, No Iterations 4
Phase-1 volume fraction = 0.127293  Min(alpha.water) = -2.02995e-17  Max(alpha.water) = 1
MULES: Correcting alpha.water
MULES: Correcting alpha.water
Phase-1 volume fraction = 0.127293  Min(alpha.water) = -1.07821e-05  Max(alpha.water) = 1
DICPCG:  Solving for p_rgh, Initial residual = 0.0357665, Final residual = 0.000692288, No Iterations 2
time step continuity errors : sum local = 0.000655041, global = -1.48895e-07, cumulative = 0.00356287
DICPCG:  Solving for p_rgh, Initial residual = 0.00103691, Final residual = 4.77249e-05, No Iterations 8
time step continuity errors : sum local = 4.45732e-05, global = -5.17871e-06, cumulative = 0.00355769
DICPCG:  Solving for p_rgh, Initial residual = 0.000270407, Final residual = 7.45585e-08, No Iterations 45
time step continuity errors : sum local = 6.98022e-08, global = 3.90317e-09, cumulative = 0.00355769
ExecutionTime = 4.75 s  ClockTime = 5 s

Courant Number mean: 0.193324 max: 0.946419
Interface Courant Number mean: 0.0403628 max: 0.865831
deltaT = 0.00281085
Time = 0.960648

PIMPLE: iteration 1
smoothSolver:  Solving for alpha.water, Initial residual = 0.00904718, Final residual = 5.80937e-10, No Iterations 4
Phase-1 volume fraction = 0.127293  Min(alpha.water) = -1.98619e-17  Max(alpha.water) = 1
MULES: Correcting alpha.water
MULES: Correcting alpha.water
Phase-1 volume fraction = 0.127293  Min(alpha.water) = -1.2386e-06  Max(alpha.water) = 1
DICPCG:  Solving for p_rgh, Initial residual = 0.0329655, Final residual = 0.000737305, No Iterations 2
time step continuity errors : sum local = 0.00068351, global = 1.597e-08, cumulative = 0.00355771
DICPCG:  Solving for p_rgh, Initial residual = 0.0010629, Final residual = 5.30033e-05, No Iterations 9
time step continuity errors : sum local = 4.84981e-05, global = -1.02106e-06, cumulative = 0.00355669
DICPCG:  Solving for p_rgh, Initial residual = 0.000268631, Final residual = 7.60131e-08, No Iterations 45
time step continuity errors : sum local = 6.98207e-08, global = 1.52282e-09, cumulative = 0.00355669
ExecutionTime = 4.76 s  ClockTime = 5 s

Courant Number mean: 0.193782 max: 0.912884
Interface Courant Number mean: 0.0402014 max: 0.863517
deltaT = 0.00302707
Time = 0.963675

PIMPLE: iteration 1
smoothSolver:  Solving for alpha.water, Initial residual = 0.00985521, Final residual = 8.74493e-10, No Iterations 4
Phase-1 volume fraction = 0.127293  Min(alpha.water) = -1.93931e-17  Max(alpha.water) = 1
MULES: Correcting alpha.water
MULES: Correcting alpha.water
Phase-1 volume fraction = 0.127293  Min(alpha.water) = -3.61414e-06  Max(alpha.water) = 1
DICPCG:  Solving for p_rgh, Initial residual = 0.0401114, Final residual = 0.00103264, No Iterations 2
time step continuity errors : sum local = 0.0010967, global = -3.56749e-07, cumulative = 0.00355633
DICPCG:  Solving for p_rgh, Initial residual = 0.00139263, Final residual = 5.05435e-05, No Iterations 10
time step continuity errors : sum local = 5.32698e-05, global = -2.51949e-06, cumulative = 0.00355381
DICPCG:  Solving for p_rgh, Initial residual = 0.000352878, Final residual = 9.42177e-08, No Iterations 44
time step continuity errors : sum local = 1.00007e-07, global = 6.4582e-10, cumulative = 0.00355381
ExecutionTime = 4.76 s  ClockTime = 5 s

Courant Number mean: 0.209386 max: 0.989194
Interface Courant Number mean: 0.0443134 max: 0.943518
deltaT = 0.00302707
Time = 0.966702

PIMPLE: iteration 1
smoothSolver:  Solving for alpha.water, Initial residual = 0.0097307, Final residual = 7.9165e-10, No Iterations 4
Phase-1 volume fraction = 0.127293  Min(alpha.water) = -1.8927e-17  Max(alpha.water) = 1
MULES: Correcting alpha.water
MULES: Correcting alpha.water
Phase-1 volume fraction = 0.127293  Min(alpha.water) = -1.1829e-06  Max(alpha.water) = 1
DICPCG:  Solving for p_rgh, Initial residual = 0.0327946, Final residual = 0.000617267, No Iterations 2
time step continuity errors : sum local = 0.000662614, global = -3.91289e-07, cumulative = 0.00355342
DICPCG:  Solving for p_rgh, Initial residual = 0.000904568, Final residual = 4.07965e-05, No Iterations 11
time step continuity errors : sum local = 4.32258e-05, global = -2.2379e-06, cumulative = 0.00355118
DICPCG:  Solving for p_rgh, Initial residual = 0.00022649, Final residual = 8.3327e-08, No Iterations 43
time step continuity errors : sum local = 8.87882e-08, global = -5.35283e-09, cumulative = 0.00355118
ExecutionTime = 4.77 s  ClockTime = 5 s

Courant Number mean: 0.209898 max: 0.971105
Interface Courant Number mean: 0.0442123 max: 0.882581
deltaT = 0.00302707
Time = 0.969729

PIMPLE: iteration 1
smoothSolver:  Solving for alpha.water, Initial residual = 0.00967513, Final residual = 7.34287e-10, No Iterations 4
Phase-1 volume fraction = 0.127293  Min(alpha.water) = -1.84642e-17  Max(alpha.water) = 1
MULES: Correcting alpha.water
MULES: Correcting alpha.water
Phase-1 volume fraction = 0.127293  Min(alpha.water) = -1.92903e-06  Max(alpha.water) = 1
DICPCG:  Solving for p_rgh, Initial residual = 0.0387177, Final residual = 0.00124594, No Iterations 2
time step continuity errors : sum local = 0.00136014, global = -3.28895e-07, cumulative = 0.00355085
DICPCG:  Solving for p_rgh, Initial residual = 0.00161539, Final residual = 6.87697e-05, No Iterations 10
time step continuity errors : sum local = 7.40171e-05, global = 6.4124e-06, cumulative = 0.00355726
DICPCG:  Solving for p_rgh, Initial residual = 0.000379503, Final residual = 9.6879e-08, No Iterations 45
time step continuity errors : sum local = 1.05113e-07, global = 1.48876e-09, cumulative = 0.00355726
ExecutionTime = 4.78 s  ClockTime = 5 s

Courant Number mean: 0.210722 max: 0.951575
Interface Courant Number mean: 0.0451017 max: 0.901294
deltaT = 0.00302707
Time = 0.972756

PIMPLE: iteration 1
smoothSolver:  Solving for alpha.water, Initial residual = 0.0095834, Final residual = 6.9345e-10, No Iterations 4
Phase-1 volume fraction = 0.127293  Min(alpha.water) = -1.80038e-17  Max(alpha.water) = 1
MULES: Correcting alpha.water
MULES: Correcting alpha.water
Phase-1 volume fraction = 0.127293  Min(alpha.water) = -3.68256e-06  Max(alpha.water) = 1
DICPCG:  Solving for p_rgh, Initial residual = 0.0393442, Final residual = 0.000847185, No Iterations 2
time step continuity errors : sum local = 0.000924656, global = -1.09152e-06, cumulative = 0.00355617
DICPCG:  Solving for p_rgh, Initial residual = 0.0011527, Final residual = 5.27655e-05, No Iterations 10
time step continuity errors : sum local = 5.70989e-05, global = -1.80643e-06, cumulative = 0.00355437
DICPCG:  Solving for p_rgh, Initial residual = 0.000285516, Final residual = 9.17803e-08, No Iterations 44
time step continuity errors : sum local = 1.00083e-07, global = 3.62431e-09, cumulative = 0.00355437
ExecutionTime = 4.79 s  ClockTime = 5 s

Courant Number mean: 0.211417 max: 0.944165
Interface Courant Number mean: 0.044891 max: 0.918538
deltaT = 0.00302707
Time = 0.975783

PIMPLE: iteration 1
smoothSolver:  Solving for alpha.water, Initial residual = 0.00961945, Final residual = 6.09667e-10, No Iterations 4
Phase-1 volume fraction = 0.127293  Min(alpha.water) = -1.75464e-17  Max(alpha.water) = 1
MULES: Correcting alpha.water
MULES: Correcting alpha.water
Phase-1 volume fraction = 0.127293  Min(alpha.water) = -9.96025e-07  Max(alpha.water) = 1
DICPCG:  Solving for p_rgh, Initial residual = 0.0333638, Final residual = 0.000645393, No Iterations 2
time step continuity errors : sum local = 0.000701048, global = -6.24273e-07, cumulative = 0.00355374
DICPCG:  Solving for p_rgh, Initial residual = 0.000932523, Final residual = 4.23342e-05, No Iterations 10
time step continuity errors : sum local = 4.55666e-05, global = 5.71395e-07, cumulative = 0.00355432
DICPCG:  Solving for p_rgh, Initial residual = 0.000225888, Final residual = 7.69402e-08, No Iterations 43
time step continuity errors : sum local = 8.31949e-08, global = -1.64695e-09, cumulative = 0.00355431
ExecutionTime = 4.8 s  ClockTime = 5 s

Courant Number mean: 0.212116 max: 0.945614
Interface Courant Number mean: 0.0444247 max: 0.920655
deltaT = 0.00302707
Time = 0.978811

PIMPLE: iteration 1
smoothSolver:  Solving for alpha.water, Initial residual = 0.00955707, Final residual = 5.7476e-10, No Iterations 4
Phase-1 volume fraction = 0.127293  Min(alpha.water) = -1.70914e-17  Max(alpha.water) = 1
MULES: Correcting alpha.water
MULES: Correcting alpha.water
Phase-1 volume fraction = 0.127293  Min(alpha.water) = -2.05489e-06  Max(alpha.water) = 1
DICPCG:  Solving for p_rgh, Initial residual = 0.0380672, Final residual = 0.00111808, No Iterations 2
time step continuity errors : sum local = 0.00124267, global = -8.49772e-07, cumulative = 0.00355346
DICPCG:  Solving for p_rgh, Initial residual = 0.00147579, Final residual = 6.00267e-05, No Iterations 9
time step continuity errors : sum local = 6.59275e-05, global = -3.29807e-07, cumulative = 0.00355313
DICPCG:  Solving for p_rgh, Initial residual = 0.000332943, Final residual = 8.29165e-08, No Iterations 45
time step continuity errors : sum local = 9.13994e-08, global = -4.62498e-10, cumulative = 0.00355313
ExecutionTime = 4.81 s  ClockTime = 5 s

Courant Number mean: 0.212774 max: 0.933274
Interface Courant Number mean: 0.0449925 max: 0.87248
deltaT = 0.00302707
Time = 0.981838

PIMPLE: iteration 1
smoothSolver:  Solving for alpha.water, Initial residual = 0.00927438, Final residual = 5.2646e-10, No Iterations 4
Phase-1 volume fraction = 0.127293  Min(alpha.water) = -1.66387e-17  Max(alpha.water) = 1
MULES: Correcting alpha.water
MULES: Correcting alpha.water
Phase-1 volume fraction = 0.127293  Min(alpha.water) = -3.42252e-06  Max(alpha.water) = 1
DICPCG:  Solving for p_rgh, Initial residual = 0.0373724, Final residual = 0.000745909, No Iterations 2
time step continuity errors : sum local = 0.000827871, global = -1.11527e-06, cumulative = 0.00355202
DICPCG:  Solving for p_rgh, Initial residual = 0.00103095, Final residual = 4.19762e-05, No Iterations 9
time step continuity errors : sum local = 4.62989e-05, global = -5.7656e-06, cumulative = 0.00354625
DICPCG:  Solving for p_rgh, Initial residual = 0.000245301, Final residual = 7.47445e-08, No Iterations 43
time step continuity errors : sum local = 8.24671e-08, global = -4.26296e-09, cumulative = 0.00354625
ExecutionTime = 4.81 s  ClockTime = 5 s

Courant Number mean: 0.213299 max: 0.927538
Interface Courant Number mean: 0.0443579 max: 0.888921
deltaT = 0.00302707
Time = 0.984865

PIMPLE: iteration 1
smoothSolver:  Solving for alpha.water, Initial residual = 0.00916819, Final residual = 4.60167e-10, No Iterations 4
Phase-1 volume fraction = 0.127293  Min(alpha.water) = -1.61884e-17  Max(alpha.water) = 1
MULES: Correcting alpha.water
MULES: Correcting alpha.water
Phase-1 volume fraction = 0.127293  Min(alpha.water) = -8.0688e-07  Max(alpha.water) = 1
DICPCG:  Solving for p_rgh, Initial residual = 0.0399031, Final residual = 0.00163221, No Iterations 2
time step continuity errors : sum local = 0.00184173, global = -8.85921e-07, cumulative = 0.00354536
DICPCG:  Solving for p_rgh, Initial residual = 0.00204948, Final residual = 9.26551e-05, No Iterations 9
time step continuity errors : sum local = 0.000103031, global = 7.07564e-06, cumulative = 0.00355244
DICPCG:  Solving for p_rgh, Initial residual = 0.000464988, Final residual = 8.96367e-08, No Iterations 45
time step continuity errors : sum local = 9.95872e-08, global = -2.43598e-09, cumulative = 0.00355244
ExecutionTime = 4.82 s  ClockTime = 5 s

Courant Number mean: 0.214003 max: 0.926782
Interface Courant Number mean: 0.0444778 max: 0.89935
deltaT = 0.00302707
Time = 0.987892

PIMPLE: iteration 1
smoothSolver:  Solving for alpha.water, Initial residual = 0.00905544, Final residual = 3.94433e-10, No Iterations 4
Phase-1 volume fraction = 0.127293  Min(alpha.water) = -1.57403e-17  Max(alpha.water) = 1
MULES: Correcting alpha.water
MULES: Correcting alpha.water
Phase-1 volume fraction = 0.127293  Min(alpha.water) = -1.76903e-06  Max(alpha.water) = 1
DICPCG:  Solving for p_rgh, Initial residual = 0.0374779, Final residual = 0.00120816, No Iterations 2
time step continuity errors : sum local = 0.00135053, global = -2.09485e-06, cumulative = 0.00355034
DICPCG:  Solving for p_rgh, Initial residual = 0.00153536, Final residual = 5.41618e-05, No Iterations 9
time step continuity errors : sum local = 6.00031e-05, global = -6.34862e-07, cumulative = 0.00354971
DICPCG:  Solving for p_rgh, Initial residual = 0.000337747, Final residual = 9.43003e-08, No Iterations 44
time step continuity errors : sum local = 1.04465e-07, global = -5.43956e-09, cumulative = 0.0035497
ExecutionTime = 4.83 s  ClockTime = 5 s

Courant Number mean: 0.214794 max: 0.913566
Interface Courant Number mean: 0.0437119 max: 0.840151
deltaT = 0.00302707
Time = 0.990919

PIMPLE: iteration 1
smoothSolver:  Solving for alpha.water, Initial residual = 0.00888867, Final residual = 3.38483e-10, No Iterations 4
Phase-1 volume fraction = 0.127293  Min(alpha.water) = -1.52939e-17  Max(alpha.water) = 1
MULES: Correcting alpha.water
MULES: Correcting alpha.water
Phase-1 volume fraction = 0.127293  Min(alpha.water) = -1.12154e-05  Max(alpha.water) = 1
DICPCG:  Solving for p_rgh, Initial residual = 0.0376121, Final residual = 0.000808295, No Iterations 2
time step continuity errors : sum local = 0.00091386, global = -1.66939e-06, cumulative = 0.00354803
DICPCG:  Solving for p_rgh, Initial residual = 0.00107226, Final residual = 4.82347e-05, No Iterations 8
time step continuity errors : sum local = 5.40807e-05, global = -9.30563e-06, cumulative = 0.00353873
DICPCG:  Solving for p_rgh, Initial residual = 0.0002553, Final residual = 9.19533e-08, No Iterations 36
time step continuity errors : sum local = 1.03133e-07, global = 7.30035e-09, cumulative = 0.00353873
ExecutionTime = 4.84 s  ClockTime = 5 s

Courant Number mean: 0.215504 max: 0.913598
Interface Courant Number mean: 0.0444792 max: 0.855443
deltaT = 0.00302707
Time = 0.993946

PIMPLE: iteration 1
smoothSolver:  Solving for alpha.water, Initial residual = 0.00878178, Final residual = 2.84717e-10, No Iterations 4
Phase-1 volume fraction = 0.127293  Min(alpha.water) = -1.485e-17  Max(alpha.water) = 1
MULES: Correcting alpha.water
MULES: Correcting alpha.water
Phase-1 volume fraction = 0.127293  Min(alpha.water) = -8.1955e-05  Max(alpha.water) = 1
DICPCG:  Solving for p_rgh, Initial residual = 0.0404973, Final residual = 0.00165719, No Iterations 2
time step continuity errors : sum local = 0.00190312, global = -1.25617e-06, cumulative = 0.00353748
DICPCG:  Solving for p_rgh, Initial residual = 0.00202982, Final residual = 8.84357e-05, No Iterations 9
time step continuity errors : sum local = 9.99984e-05, global = 8.82331e-06, cumulative = 0.0035463
DICPCG:  Solving for p_rgh, Initial residual = 0.000442898, Final residual = 8.19049e-08, No Iterations 45
time step continuity errors : sum local = 9.25285e-08, global = -4.34142e-09, cumulative = 0.0035463
ExecutionTime = 4.84 s  ClockTime = 5 s

Courant Number mean: 0.216234 max: 0.92021
Interface Courant Number mean: 0.0435373 max: 0.872132
deltaT = 0.00302707
Time = 0.996973

PIMPLE: iteration 1
smoothSolver:  Solving for alpha.water, Initial residual = 0.00855561, Final residual = 2.42239e-10, No Iterations 4
Phase-1 volume fraction = 0.127293  Min(alpha.water) = -1.44084e-17  Max(alpha.water) = 1
MULES: Correcting alpha.water
MULES: Correcting alpha.water
Phase-1 volume fraction = 0.127293  Min(alpha.water) = -1.2166e-06  Max(alpha.water) = 1
DICPCG:  Solving for p_rgh, Initial residual = 0.0394964, Final residual = 0.00127616, No Iterations 2
time step continuity errors : sum local = 0.00147059, global = -2.86596e-06, cumulative = 0.00354343
DICPCG:  Solving for p_rgh, Initial residual = 0.00156604, Final residual = 5.58793e-05, No Iterations 9
time step continuity errors : sum local = 6.39441e-05, global = 3.59645e-08, cumulative = 0.00354347
DICPCG:  Solving for p_rgh, Initial residual = 0.000336702, Final residual = 8.05472e-08, No Iterations 44
time step continuity errors : sum local = 9.23329e-08, global = -5.20387e-09, cumulative = 0.00354346
ExecutionTime = 4.85 s  ClockTime = 5 s

Courant Number mean: 0.217107 max: 0.919754
Interface Courant Number mean: 0.0429693 max: 0.813753
deltaT = 0.00302707
Time = 1

PIMPLE: iteration 1
smoothSolver:  Solving for alpha.water, Initial residual = 0.00844299, Final residual = 2.06966e-10, No Iterations 4
Phase-1 volume fraction = 0.127293  Min(alpha.water) = -1.40569e-17  Max(alpha.water) = 1
MULES: Correcting alpha.water
MULES: Correcting alpha.water
Phase-1 volume fraction = 0.127293  Min(alpha.water) = -9.41463e-06  Max(alpha.water) = 1
DICPCG:  Solving for p_rgh, Initial residual = 0.0370845, Final residual = 0.000760911, No Iterations 2
time step continuity errors : sum local = 0.000890655, global = -2.35256e-06, cumulative = 0.00354111
DICPCG:  Solving for p_rgh, Initial residual = 0.000989674, Final residual = 4.36906e-05, No Iterations 8
time step continuity errors : sum local = 5.07683e-05, global = -7.14325e-06, cumulative = 0.00353397
DICPCG:  Solving for p_rgh, Initial residual = 0.000228931, Final residual = 8.69949e-08, No Iterations 42
time step continuity errors : sum local = 1.01188e-07, global = 6.88159e-09, cumulative = 0.00353397
ExecutionTime = 4.88 s  ClockTime = 5 s

End

